<?xml version="1.0"?>

<!-- generated on 05/02/11 13:22:26 by SUMO duarouter Version 0.12.3
<?xml version="1.0" encoding="iso-8859-1"?>

<configuration xmlns:xsi="http://www.w3.org/2001/XMLSchema-instance" xsi:noNamespaceSchemaLocation="http://sumo.sf.net/xsd/duarouterConfiguration.xsd">

    <input>
        <net-file value="manhattan.net.xml"/>
        <flow-definition value="trips.trips.xml"/>
    </input>

    <output>
        <output-file value="manhattan_heavy.rou.xml"/>
    </output>

    <processing>
        <randomize-flows value="true"/>
    </processing>

</configuration>
-->

<routes>
    <vehicle id="t119_0" type="city_vehicles" depart="0.00">
        <route edges="F4F3 F3E3 E3D3 D3C3 C3B3 B3A3 A3A4 A4A5 A5A6 A6A7 A7A8 A8A7"/>
    </vehicle>
    <vehicle id="t129_0" type="city_vehicles" depart="0.00">
        <route edges="A5A6 A6A5 A5A4 A4A3 A3B3 B3C3 C3D3 D3D2 D2D1 D1D0 D0E0 E0F0"/>
    </vehicle>
    <vehicle id="t137_0" type="city_vehicles" depart="0.00">
        <route edges="G8G7 G7G6 G6F6 F6E6 E6D6 D6D5 D5D4 D4D3 D3D2 D2D3"/>
    </vehicle>
    <vehicle id="t17_0" type="city_vehicles" depart="0.00">
        <route edges="H0I0 I0H0 H0G0 G0F0 F0E0 E0D0 D0D1 D1D2 D2D3 D3D4 D4C4"/>
    </vehicle>
    <vehicle id="t19_0" type="city_vehicles" depart="0.00">
        <route edges="E4D4 D4D5 D5D6 D6C6 C6B6 B6A6 A6A7 A7A8 A8A9"/>
    </vehicle>
    <vehicle id="t51_0" type="city_vehicles" depart="0.00">
        <route edges="D9D8 D8D9 D9E9 E9F9 F9G9 G9H9"/>
    </vehicle>
    <vehicle id="t37_0" type="city_vehicles" depart="1.00">
        <route edges="H8G8 G8G7 G7G6 G6F6 F6E6 E6D6 D6E6"/>
    </vehicle>
    <vehicle id="t39_0" type="city_vehicles" depart="1.00">
        <route edges="J5J6 J6I6 I6H6 H6G6 G6F6 F6E6 E6D6 D6D7 D7D8 D8D7"/>
    </vehicle>
    <vehicle id="t49_0" type="city_vehicles" depart="1.00">
        <route edges="H5H6 H6I6 I6I5 I5I4 I4I3 I3I2 I2I1 I1J1"/>
    </vehicle>
    <vehicle id="t15_0" type="city_vehicles" depart="2.00">
        <route edges="I0J0 J0I0 I0H0 H0H1 H1H2 H2I2"/>
    </vehicle>
    <vehicle id="t42_0" type="city_vehicles" depart="2.00">
        <route edges="C6C5 C5D5 D5D4 D4D3 D3E3 E3F3 F3G3 G3G2"/>
    </vehicle>
    <vehicle id="t54_0" type="city_vehicles" depart="2.00">
        <route edges="I2J2 J2J3 J3I3 I3H3 H3G3 G3F3 F3E3 E3D3 D3D4 D4E4"/>
    </vehicle>
    <vehicle id="t77_0" type="city_vehicles" depart="2.00">
        <route edges="H6H5 H5H6 H6I6 I6I7 I7I8 I8I9"/>
    </vehicle>
    <vehicle id="t13_0" type="city_vehicles" depart="3.00">
        <route edges="B4C4 C4C5 C5C6 C6C7 C7C8"/>
    </vehicle>
    <vehicle id="t22_0" type="city_vehicles" depart="3.00">
        <route edges="G3G4 G4G5 G5G6 G6F6 F6E6 E6F6"/>
    </vehicle>
    <vehicle id="t143_0" type="city_vehicles" depart="4.00">
        <route edges="I0J0 J0I0 I0H0 H0G0 G0F0 F0E0 E0D0 D0C0 C0B0 B0A0 A0A1 A1A2"/>
    </vehicle>
    <vehicle id="t51_1" type="city_vehicles" depart="5.00">
        <route edges="D9D8 D8D9 D9E9 E9F9 F9G9 G9H9"/>
    </vehicle>
    <vehicle id="t54_1" type="city_vehicles" depart="5.00">
        <route edges="I2J2 J2J3 J3I3 I3H3 H3G3 G3F3 F3E3 E3D3 D3D4 D4E4"/>
    </vehicle>
    <vehicle id="t139_0" type="city_vehicles" depart="6.00">
        <route edges="E0E1 E1D1 D1D0 D0C0"/>
    </vehicle>
    <vehicle id="t17_1" type="city_vehicles" depart="6.00">
        <route edges="H0I0 I0H0 H0G0 G0F0 F0E0 E0D0 D0D1 D1D2 D2D3 D3D4 D4C4"/>
    </vehicle>
    <vehicle id="t87_0" type="city_vehicles" depart="6.00">
        <route edges="E1E0 E0F0 F0G0 G0G1 G1G2"/>
    </vehicle>
    <vehicle id="t99_0" type="city_vehicles" depart="6.00">
        <route edges="C7C6 C6D6 D6D5 D5D4 D4D3 D3E3 E3F3 F3G3 G3H3 H3I3 I3I2 I2H2"/>
    </vehicle>
    <vehicle id="t12_0" type="city_vehicles" depart="7.00">
        <route edges="E3E2 E2E3 E3F3 F3G3 G3G4"/>
    </vehicle>
    <vehicle id="t146_0" type="city_vehicles" depart="7.00">
        <route edges="B7B6 B6C6 C6D6 D6E6 E6F6 F6G6 G6G5 G5G4 G4H4 H4I4 I4I3"/>
    </vehicle>
    <vehicle id="t148_0" type="city_vehicles" depart="7.00">
        <route edges="H5H6 H6G6 G6F6 F6E6 E6D6 D6C6 C6B6 B6A6 A6A5 A5A4 A4B4"/>
    </vehicle>
    <vehicle id="t2_0" type="city_vehicles" depart="7.00">
        <route edges="J9I9 I9H9 H9G9 G9G8 G8G7 G7G6 G6F6 F6E6"/>
    </vehicle>
    <vehicle id="t33_0" type="city_vehicles" depart="7.00">
        <route edges="D8D9 D9E9 E9F9 F9F8"/>
    </vehicle>
    <vehicle id="t89_0" type="city_vehicles" depart="7.00">
        <route edges="J6J7 J7I7 I7H7 H7G7 G7F7 F7E7 E7E6"/>
    </vehicle>
    <vehicle id="t149_0" type="city_vehicles" depart="8.00">
        <route edges="H3G3 G3G4 G4G5 G5G6 G6H6 H6I6 I6J6 J6J7"/>
    </vehicle>
    <vehicle id="t38_0" type="city_vehicles" depart="8.00">
        <route edges="C6C7 C7C6 C6D6 D6D5 D5D4 D4D3 D3D2 D2D1 D1D0 D0E0 E0F0 F0G0 G0H0 H0I0 I0J0 J0I0"/>
    </vehicle>
    <vehicle id="t63_0" type="city_vehicles" depart="8.00">
        <route edges="D6D7 D7D6 D6D5 D5D4 D4D3 D3C3 C3C2 C2C3"/>
    </vehicle>
    <vehicle id="t91_0" type="city_vehicles" depart="8.00">
        <route edges="G4G5 G5G4 G4G3 G3F3 F3E3 E3D3 D3D2 D2D1 D1D2"/>
    </vehicle>
    <vehicle id="t0_0" type="city_vehicles" depart="9.00">
        <route edges="C6B6 B6C6 C6C7 C7C8 C8C9 C9B9"/>
    </vehicle>
    <vehicle id="t140_0" type="city_vehicles" depart="9.00">
        <route edges="H0H1 H1G1 G1G2 G2G3 G3F3 F3E3 E3D3 D3C3 C3B3 B3A3 A3A4 A4A5 A5A6 A6B6"/>
    </vehicle>
    <vehicle id="t7_0" type="city_vehicles" depart="10.00">
        <route edges="H3I3 I3H3 H3G3 G3F3 F3E3 E3D3 D3C3 C3B3 B3C3"/>
    </vehicle>
    <vehicle id="t106_0" type="city_vehicles" depart="11.00">
        <route edges="G4G5 G5F5 F5E5 E5D5 D5C5 C5B5 B5A5"/>
    </vehicle>
    <vehicle id="t117_0" type="city_vehicles" depart="11.00">
        <route edges="D3C3 C3B3 B3A3 A3A4 A4A5 A5A6"/>
    </vehicle>
    <vehicle id="t120_0" type="city_vehicles" depart="11.00">
        <route edges="B8C8 C8D8 D8D7 D7E7"/>
    </vehicle>
    <vehicle id="t122_0" type="city_vehicles" depart="11.00">
        <route edges="H9H8 H8H7 H7H6 H6I6 I6J6 J6J5 J5J4 J4J3 J3I3"/>
    </vehicle>
    <vehicle id="t68_0" type="city_vehicles" depart="11.00">
        <route edges="H3I3 I3I2 I2H2"/>
    </vehicle>
    <vehicle id="t73_0" type="city_vehicles" depart="11.00">
        <route edges="E6D6 D6C6 C6B6 B6A6 A6A5 A5A4 A4A3 A3A4"/>
    </vehicle>
    <vehicle id="t96_0" type="city_vehicles" depart="11.00">
        <route edges="I7I8 I8I7 I7I6 I6H6 H6H5 H5H4 H4H3 H3H2 H2H1 H1H0"/>
    </vehicle>
    <vehicle id="t104_0" type="city_vehicles" depart="12.00">
        <route edges="D7D8 D8D7 D7D6 D6D5 D5D4 D4D3 D3D2 D2D1 D1D0 D0C0 C0B0"/>
    </vehicle>
    <vehicle id="t116_0" type="city_vehicles" depart="12.00">
        <route edges="G7G6 G6F6 F6E6 E6D6 D6D5 D5D4 D4D3 D3D2 D2D1 D1C1 C1B1"/>
    </vehicle>
    <vehicle id="t144_0" type="city_vehicles" depart="12.00">
        <route edges="B6A6 A6B6 B6C6 C6D6 D6D7 D7D8 D8D9 D9E9 E9F9 F9G9 G9H9 H9I9 I9H9"/>
    </vehicle>
    <vehicle id="t36_0" type="city_vehicles" depart="12.00">
        <route edges="D7D6 D6D5 D5D4 D4D3 D3D2 D2D1 D1D0"/>
    </vehicle>
    <vehicle id="t69_0" type="city_vehicles" depart="12.00">
        <route edges="J6J7 J7J6 J6I6 I6H6 H6G6 G6G5 G5G4 G4G3 G3F3 F3E3 E3E2 E2D2"/>
    </vehicle>
    <vehicle id="t7_1" type="city_vehicles" depart="12.00">
        <route edges="H3I3 I3H3 H3G3 G3F3 F3E3 E3D3 D3C3 C3B3 B3C3"/>
    </vehicle>
    <vehicle id="t88_0" type="city_vehicles" depart="12.00">
        <route edges="G9F9 F9E9 E9D9 D9C9"/>
    </vehicle>
    <vehicle id="t18_0" type="city_vehicles" depart="13.00">
        <route edges="G6F6 F6G6 G6G5 G5G4 G4G3 G3G2 G2G1 G1G0 G0F0"/>
    </vehicle>
    <vehicle id="t39_1" type="city_vehicles" depart="13.00">
        <route edges="J5J6 J6I6 I6H6 H6G6 G6F6 F6E6 E6D6 D6D7 D7D8 D8D7"/>
    </vehicle>
    <vehicle id="t44_0" type="city_vehicles" depart="13.00">
        <route edges="F4E4 E4E3 E3F3 F3G3 G3H3 H3I3 I3J3 J3J2 J2J1 J1J2"/>
    </vehicle>
    <vehicle id="t58_0" type="city_vehicles" depart="13.00">
        <route edges="B0B1 B1B2 B2B3 B3C3 C3D3 D3D4 D4D5 D5D6 D6D7 D7D8 D8D9 D9E9 E9F9 F9G9 G9F9"/>
    </vehicle>
    <vehicle id="t93_0" type="city_vehicles" depart="13.00">
        <route edges="F1F2 F2F3 F3G3 G3G4 G4G5 G5G6 G6G7 G7F7"/>
    </vehicle>
    <vehicle id="t39_2" type="city_vehicles" depart="14.00">
        <route edges="J5J6 J6I6 I6H6 H6G6 G6F6 F6E6 E6D6 D6D7 D7D8 D8D7"/>
    </vehicle>
    <vehicle id="t115_0" type="city_vehicles" depart="15.00">
        <route edges="H1I1 I1I0 I0J0 J0J1"/>
    </vehicle>
    <vehicle id="t35_0" type="city_vehicles" depart="15.00">
        <route edges="D5E5 E5D5 D5D4 D4D3 D3C3 C3B3 B3A3 A3A2"/>
    </vehicle>
    <vehicle id="t72_0" type="city_vehicles" depart="15.00">
        <route edges="A8B8 B8C8 C8D8 D8D7 D7E7 E7F7 F7G7"/>
    </vehicle>
    <vehicle id="t23_0" type="city_vehicles" depart="16.00">
        <route edges="C0C1 C1D1 D1D2 D2D3 D3E3 E3F3 F3G3 G3H3 H3H2"/>
    </vehicle>
    <vehicle id="t89_1" type="city_vehicles" depart="16.00">
        <route edges="J6J7 J7I7 I7H7 H7G7 G7F7 F7E7 E7E6"/>
    </vehicle>
    <vehicle id="t102_0" type="city_vehicles" depart="17.00">
        <route edges="I0H0 H0G0 G0F0 F0E0 E0D0 D0D1 D1D2 D2D3 D3D4 D4D5 D5D6 D6C6 C6B6 B6B7 B7A7"/>
    </vehicle>
    <vehicle id="t105_0" type="city_vehicles" depart="17.00">
        <route edges="A2A1 A1A2 A2A3 A3B3 B3C3 C3D3 D3E3 E3F3 F3G3 G3H3 H3I3 I3J3 J3J4 J4I4"/>
    </vehicle>
    <vehicle id="t124_0" type="city_vehicles" depart="17.00">
        <route edges="E4F4 F4F3 F3G3 G3H3 H3I3 I3J3 J3J2 J2J1 J1J0"/>
    </vehicle>
    <vehicle id="t134_0" type="city_vehicles" depart="17.00">
        <route edges="G4F4 F4E4 E4D4 D4D5 D5D6 D6C6 C6B6 B6C6"/>
    </vehicle>
    <vehicle id="t29_0" type="city_vehicles" depart="17.00">
        <route edges="D0D1 D1D0 D0E0 E0F0 F0G0 G0H0 H0I0 I0I1"/>
    </vehicle>
    <vehicle id="t45_0" type="city_vehicles" depart="17.00">
        <route edges="B9A9 A9A8 A8A7 A7A6"/>
    </vehicle>
    <vehicle id="t49_1" type="city_vehicles" depart="17.00">
        <route edges="H5H6 H6I6 I6I5 I5I4 I4I3 I3I2 I2I1 I1J1"/>
    </vehicle>
    <vehicle id="t67_0" type="city_vehicles" depart="17.00">
        <route edges="J1I1 I1H1 H1G1 G1G2 G2G3 G3G4 G4G5 G5G6"/>
    </vehicle>
    <vehicle id="t19_1" type="city_vehicles" depart="18.00">
        <route edges="E4D4 D4D5 D5D6 D6C6 C6B6 B6A6 A6A7 A7A8 A8A9"/>
    </vehicle>
    <vehicle id="t2_1" type="city_vehicles" depart="18.00">
        <route edges="J9I9 I9H9 H9G9 G9G8 G8G7 G7G6 G6F6 F6E6"/>
    </vehicle>
    <vehicle id="t61_0" type="city_vehicles" depart="18.00">
        <route edges="D6D7 D7D8 D8D9 D9E9 E9F9 F9F8"/>
    </vehicle>
    <vehicle id="t7_2" type="city_vehicles" depart="18.00">
        <route edges="H3I3 I3H3 H3G3 G3F3 F3E3 E3D3 D3C3 C3B3 B3C3"/>
    </vehicle>
    <vehicle id="t8_0" type="city_vehicles" depart="18.00">
        <route edges="B6B5 B5C5 C5B5"/>
    </vehicle>
    <vehicle id="t100_0" type="city_vehicles" depart="19.00">
        <route edges="G4G3 G3H3 H3I3 I3J3 J3J2 J2J1 J1I1"/>
    </vehicle>
    <vehicle id="t114_0" type="city_vehicles" depart="19.00">
        <route edges="C1C2 C2D2 D2D1 D1C1"/>
    </vehicle>
    <vehicle id="t135_0" type="city_vehicles" depart="19.00">
        <route edges="I6H6 H6G6 G6G7 G7G6"/>
    </vehicle>
    <vehicle id="t75_0" type="city_vehicles" depart="19.00">
        <route edges="I4H4 H4H3 H3I3 I3I2"/>
    </vehicle>
    <vehicle id="t8_1" type="city_vehicles" depart="19.00">
        <route edges="B6B5 B5C5 C5B5"/>
    </vehicle>
    <vehicle id="t95_0" type="city_vehicles" depart="19.00">
        <route edges="J5J6 J6J5 J5J4 J4J3 J3I3 I3H3 H3H2 H2H1 H1G1"/>
    </vehicle>
    <vehicle id="t108_0" type="city_vehicles" depart="20.00">
        <route edges="E5D5 D5D4 D4D3 D3E3 E3F3 F3G3 G3G2 G2G1"/>
    </vehicle>
    <vehicle id="t132_0" type="city_vehicles" depart="20.00">
        <route edges="H4H3 H3I3 I3I2 I2I1 I1I0 I0H0"/>
    </vehicle>
    <vehicle id="t43_0" type="city_vehicles" depart="20.00">
        <route edges="D8C8 C8D8 D8D7 D7D6 D6D5 D5D4 D4D3 D3E3 E3F3 F3G3 G3H3 H3I3 I3J3 J3J2 J2J1"/>
    </vehicle>
    <vehicle id="t65_0" type="city_vehicles" depart="20.00">
        <route edges="B2A2 A2A3 A3A4 A4A5 A5A6 A6B6 B6C6 C6D6 D6E6 E6F6 F6G6 G6H6 H6I6 I6J6 J6J7"/>
    </vehicle>
    <vehicle id="t111_0" type="city_vehicles" depart="22.00">
        <route edges="H0I0 I0H0 H0G0 G0F0 F0E0 E0D0 D0D1 D1D2 D2D3 D3D4 D4D5 D5D4"/>
    </vehicle>
    <vehicle id="t31_0" type="city_vehicles" depart="22.00">
        <route edges="F7E7 E7E8 E8E9 E9F9 F9G9 G9G8"/>
    </vehicle>
    <vehicle id="t50_0" type="city_vehicles" depart="22.00">
        <route edges="A3A4 A4A5 A5A4"/>
    </vehicle>
    <vehicle id="t93_1" type="city_vehicles" depart="22.00">
        <route edges="F1F2 F2F3 F3G3 G3G4 G4G5 G5G6 G6G7 G7F7"/>
    </vehicle>
    <vehicle id="t96_1" type="city_vehicles" depart="22.00">
        <route edges="I7I8 I8I7 I7I6 I6H6 H6H5 H5H4 H4H3 H3H2 H2H1 H1H0"/>
    </vehicle>
    <vehicle id="t108_1" type="city_vehicles" depart="23.00">
        <route edges="E5D5 D5D4 D4D3 D3E3 E3F3 F3G3 G3G2 G2G1"/>
    </vehicle>
    <vehicle id="t138_0" type="city_vehicles" depart="23.00">
        <route edges="C0B0 B0C0 C0D0 D0D1 D1D2 D2D3 D3D4 D4E4 E4E3"/>
    </vehicle>
    <vehicle id="t85_0" type="city_vehicles" depart="23.00">
        <route edges="E6F6 F6E6 E6D6 D6D5 D5D4 D4D3 D3D2 D2D1 D1C1"/>
    </vehicle>
    <vehicle id="t98_0" type="city_vehicles" depart="23.00">
        <route edges="E5F5 F5F6 F6G6 G6H6 H6I6 I6J6 J6J7 J7J8"/>
    </vehicle>
    <vehicle id="t136_0" type="city_vehicles" depart="24.00">
        <route edges="A4B4 B4B3"/>
    </vehicle>
    <vehicle id="t76_0" type="city_vehicles" depart="24.00">
        <route edges="D1D0 D0E0 E0F0 F0G0 G0G1 G1G2 G2H2 H2I2 I2I1"/>
    </vehicle>
    <vehicle id="t112_0" type="city_vehicles" depart="25.00">
        <route edges="D7D6 D6D7 D7D8 D8E8 E8E9"/>
    </vehicle>
    <vehicle id="t41_0" type="city_vehicles" depart="25.00">
        <route edges="A5A4 A4A5 A5A6 A6A5"/>
    </vehicle>
    <vehicle id="t5_0" type="city_vehicles" depart="25.00">
        <route edges="G1H1 H1G1 G1G0 G0G1"/>
    </vehicle>
    <vehicle id="t65_1" type="city_vehicles" depart="25.00">
        <route edges="B2A2 A2A3 A3A4 A4A5 A5A6 A6B6 B6C6 C6D6 D6E6 E6F6 F6G6 G6H6 H6I6 I6J6 J6J7"/>
    </vehicle>
    <vehicle id="t27_0" type="city_vehicles" depart="26.00">
        <route edges="H0G0 G0G1 G1G2 G2G3 G3H3 H3I3 I3J3 J3J4 J4J5 J5J4"/>
    </vehicle>
    <vehicle id="t86_0" type="city_vehicles" depart="26.00">
        <route edges="G7G8 G8G7 G7G6 G6H6 H6H5"/>
    </vehicle>
    <vehicle id="t87_1" type="city_vehicles" depart="26.00">
        <route edges="E1E0 E0F0 F0G0 G0G1 G1G2"/>
    </vehicle>
    <vehicle id="t16_0" type="city_vehicles" depart="27.00">
        <route edges="D0E0 E0D0 D0D1 D1D2 D2D3 D3E3"/>
    </vehicle>
    <vehicle id="t5_1" type="city_vehicles" depart="27.00">
        <route edges="G1H1 H1G1 G1G0 G0G1"/>
    </vehicle>
    <vehicle id="t34_0" type="city_vehicles" depart="28.00">
        <route edges="I4I3 I3H3 H3H2 H2H1 H1G1"/>
    </vehicle>
    <vehicle id="t53_0" type="city_vehicles" depart="28.00">
        <route edges="D0E0 E0F0 F0G0 G0G1 G1G2 G2G3 G3H3 H3I3 I3J3 J3J4 J4J5 J5J4"/>
    </vehicle>
    <vehicle id="t56_0" type="city_vehicles" depart="29.00">
        <route edges="J6J7 J7I7 I7H7 H7H6"/>
    </vehicle>
    <vehicle id="t107_0" type="city_vehicles" depart="30.00">
        <route edges="E0D0 D0D1 D1D2 D2D3 D3C3 C3B3 B3A3 A3A4 A4A3"/>
    </vehicle>
    <vehicle id="t118_0" type="city_vehicles" depart="30.00">
        <route edges="D0E0 E0D0 D0D1 D1D2 D2D3 D3D4 D4D5 D5D6 D6D7 D7D8 D8D9 D9C9 C9B9"/>
    </vehicle>
    <vehicle id="t142_0" type="city_vehicles" depart="30.00">
        <route edges="G5G4 G4G5 G5G6 G6F6 F6E6 E6D6 D6C6 C6B6 B6B7"/>
    </vehicle>
    <vehicle id="t145_0" type="city_vehicles" depart="30.00">
        <route edges="F2F1 F1F2 F2F3 F3E3 E3E4 E4E5 E5E6 E6D6"/>
    </vehicle>
    <vehicle id="t22_1" type="city_vehicles" depart="30.00">
        <route edges="G3G4 G4G5 G5G6 G6F6 F6E6 E6F6"/>
    </vehicle>
    <vehicle id="t131_0" type="city_vehicles" depart="31.00">
        <route edges="D0D1 D1D2 D2D3 D3C3 C3B3 B3A3 A3A4 A4A5 A5A6 A6B6"/>
    </vehicle>
    <vehicle id="t13_1" type="city_vehicles" depart="31.00">
        <route edges="B4C4 C4C5 C5C6 C6C7 C7C8"/>
    </vehicle>
    <vehicle id="t41_1" type="city_vehicles" depart="31.00">
        <route edges="A5A4 A4A5 A5A6 A6A5"/>
    </vehicle>
    <vehicle id="t60_0" type="city_vehicles" depart="31.00">
        <route edges="C4C3 C3D3 D3E3 E3F3 F3G3 G3H3 H3I3 I3J3 J3J2 J2J1"/>
    </vehicle>
    <vehicle id="t71_0" type="city_vehicles" depart="31.00">
        <route edges="B0A0 A0A1 A1A2 A2A3 A3A4 A4A5 A5A6 A6B6 B6C6 C6D6 D6D7 D7C7"/>
    </vehicle>
    <vehicle id="t11_0" type="city_vehicles" depart="32.00">
        <route edges="A2A1 A1B1 B1C1 C1D1 D1E1 E1F1 F1G1 G1H1"/>
    </vehicle>
    <vehicle id="t41_2" type="city_vehicles" depart="32.00">
        <route edges="A5A4 A4A5 A5A6 A6A5"/>
    </vehicle>
    <vehicle id="t75_1" type="city_vehicles" depart="32.00">
        <route edges="I4H4 H4H3 H3I3 I3I2"/>
    </vehicle>
    <vehicle id="t135_1" type="city_vehicles" depart="33.00">
        <route edges="I6H6 H6G6 G6G7 G7G6"/>
    </vehicle>
    <vehicle id="t139_1" type="city_vehicles" depart="33.00">
        <route edges="E0E1 E1D1 D1D0 D0C0"/>
    </vehicle>
    <vehicle id="t148_1" type="city_vehicles" depart="33.00">
        <route edges="H5H6 H6G6 G6F6 F6E6 E6D6 D6C6 C6B6 B6A6 A6A5 A5A4 A4B4"/>
    </vehicle>
    <vehicle id="t37_1" type="city_vehicles" depart="33.00">
        <route edges="H8G8 G8G7 G7G6 G6F6 F6E6 E6D6 D6E6"/>
    </vehicle>
    <vehicle id="t4_0" type="city_vehicles" depart="33.00">
        <route edges="F4E4 E4E5 E5F5 F5F6"/>
    </vehicle>
    <vehicle id="t66_0" type="city_vehicles" depart="33.00">
        <route edges="F5G5 G5G4 G4G3 G3H3 H3I3 I3J3 J3J2 J2J1 J1I1"/>
    </vehicle>
    <vehicle id="t104_1" type="city_vehicles" depart="34.00">
        <route edges="D7D8 D8D7 D7D6 D6D5 D5D4 D4D3 D3D2 D2D1 D1D0 D0C0 C0B0"/>
    </vehicle>
    <vehicle id="t149_1" type="city_vehicles" depart="34.00">
        <route edges="H3G3 G3G4 G4G5 G5G6 G6H6 H6I6 I6J6 J6J7"/>
    </vehicle>
    <vehicle id="t28_0" type="city_vehicles" depart="34.00">
        <route edges="B4C4 C4B4 B4A4 A4A5 A5A6 A6A7 A7A8 A8A7"/>
    </vehicle>
    <vehicle id="t45_1" type="city_vehicles" depart="34.00">
        <route edges="B9A9 A9A8 A8A7 A7A6"/>
    </vehicle>
    <vehicle id="t66_1" type="city_vehicles" depart="35.00">
        <route edges="F5G5 G5G4 G4G3 G3H3 H3I3 I3J3 J3J2 J2J1 J1I1"/>
    </vehicle>
    <vehicle id="t6_0" type="city_vehicles" depart="35.00">
        <route edges="E3D3 D3D2 D2D1 D1D0 D0E0 E0F0 F0G0"/>
    </vehicle>
    <vehicle id="t116_1" type="city_vehicles" depart="36.00">
        <route edges="G7G6 G6F6 F6E6 E6D6 D6D5 D5D4 D4D3 D3D2 D2D1 D1C1 C1B1"/>
    </vehicle>
    <vehicle id="t42_1" type="city_vehicles" depart="36.00">
        <route edges="C6C5 C5D5 D5D4 D4D3 D3E3 E3F3 F3G3 G3G2"/>
    </vehicle>
    <vehicle id="t54_2" type="city_vehicles" depart="36.00">
        <route edges="I2J2 J2J3 J3I3 I3H3 H3G3 G3F3 F3E3 E3D3 D3D4 D4E4"/>
    </vehicle>
    <vehicle id="t72_1" type="city_vehicles" depart="36.00">
        <route edges="A8B8 B8C8 C8D8 D8D7 D7E7 E7F7 F7G7"/>
    </vehicle>
    <vehicle id="t94_0" type="city_vehicles" depart="36.00">
        <route edges="E1E0 E0F0 F0G0 G0G1 G1G2 G2G3 G3G4 G4H4 H4H5"/>
    </vehicle>
    <vehicle id="t142_1" type="city_vehicles" depart="37.00">
        <route edges="G5G4 G4G5 G5G6 G6F6 F6E6 E6D6 D6C6 C6B6 B6B7"/>
    </vehicle>
    <vehicle id="t145_1" type="city_vehicles" depart="37.00">
        <route edges="F2F1 F1F2 F2F3 F3E3 E3E4 E4E5 E5E6 E6D6"/>
    </vehicle>
    <vehicle id="t3_0" type="city_vehicles" depart="37.00">
        <route edges="C4D4 D4D5 D5D6 D6D7 D7D8 D8E8 E8F8 F8E8"/>
    </vehicle>
    <vehicle id="t56_1" type="city_vehicles" depart="37.00">
        <route edges="J6J7 J7I7 I7H7 H7H6"/>
    </vehicle>
    <vehicle id="t70_0" type="city_vehicles" depart="37.00">
        <route edges="A2A3 A3A2 A2A1"/>
    </vehicle>
    <vehicle id="t72_2" type="city_vehicles" depart="37.00">
        <route edges="A8B8 B8C8 C8D8 D8D7 D7E7 E7F7 F7G7"/>
    </vehicle>
    <vehicle id="t80_0" type="city_vehicles" depart="37.00">
        <route edges="C6C7 C7C6 C6C5 C5C4 C4C3 C3B3"/>
    </vehicle>
    <vehicle id="t84_0" type="city_vehicles" depart="37.00">
        <route edges="A0A1 A1A2 A2A3 A3A4 A4A5 A5A6 A6A5"/>
    </vehicle>
    <vehicle id="t128_0" type="city_vehicles" depart="38.00">
        <route edges="A2A1 A1A2 A2A3 A3B3"/>
    </vehicle>
    <vehicle id="t26_0" type="city_vehicles" depart="38.00">
        <route edges="C3C2 C2C1 C1C0 C0B0 B0C0"/>
    </vehicle>
    <vehicle id="t82_0" type="city_vehicles" depart="38.00">
        <route edges="J6I6 I6H6 H6G6 G6F6 F6E6 E6D6 D6D5 D5D4 D4D3 D3D2 D2C2"/>
    </vehicle>
    <vehicle id="t19_2" type="city_vehicles" depart="39.00">
        <route edges="E4D4 D4D5 D5D6 D6C6 C6B6 B6A6 A6A7 A7A8 A8A9"/>
    </vehicle>
    <vehicle id="t23_1" type="city_vehicles" depart="39.00">
        <route edges="C0C1 C1D1 D1D2 D2D3 D3E3 E3F3 F3G3 G3H3 H3H2"/>
    </vehicle>
    <vehicle id="t37_2" type="city_vehicles" depart="39.00">
        <route edges="H8G8 G8G7 G7G6 G6F6 F6E6 E6D6 D6E6"/>
    </vehicle>
    <vehicle id="t56_2" type="city_vehicles" depart="39.00">
        <route edges="J6J7 J7I7 I7H7 H7H6"/>
    </vehicle>
    <vehicle id="t61_1" type="city_vehicles" depart="39.00">
        <route edges="D6D7 D7D8 D8D9 D9E9 E9F9 F9F8"/>
    </vehicle>
    <vehicle id="t77_1" type="city_vehicles" depart="39.00">
        <route edges="H6H5 H5H6 H6I6 I6I7 I7I8 I8I9"/>
    </vehicle>
    <vehicle id="t86_1" type="city_vehicles" depart="39.00">
        <route edges="G7G8 G8G7 G7G6 G6H6 H6H5"/>
    </vehicle>
    <vehicle id="t102_1" type="city_vehicles" depart="40.00">
        <route edges="I0H0 H0G0 G0F0 F0E0 E0D0 D0D1 D1D2 D2D3 D3D4 D4D5 D5D6 D6C6 C6B6 B6B7 B7A7"/>
    </vehicle>
    <vehicle id="t17_2" type="city_vehicles" depart="40.00">
        <route edges="H0I0 I0H0 H0G0 G0F0 F0E0 E0D0 D0D1 D1D2 D2D3 D3D4 D4C4"/>
    </vehicle>
    <vehicle id="t101_0" type="city_vehicles" depart="41.00">
        <route edges="I0H0 H0G0 G0G1 G1G2 G2G3 G3F3 F3E3 E3D3"/>
    </vehicle>
    <vehicle id="t107_1" type="city_vehicles" depart="41.00">
        <route edges="E0D0 D0D1 D1D2 D2D3 D3C3 C3B3 B3A3 A3A4 A4A3"/>
    </vehicle>
    <vehicle id="t115_1" type="city_vehicles" depart="41.00">
        <route edges="H1I1 I1I0 I0J0 J0J1"/>
    </vehicle>
    <vehicle id="t116_2" type="city_vehicles" depart="41.00">
        <route edges="G7G6 G6F6 F6E6 E6D6 D6D5 D5D4 D4D3 D3D2 D2D1 D1C1 C1B1"/>
    </vehicle>
    <vehicle id="t12_1" type="city_vehicles" depart="41.00">
        <route edges="E3E2 E2E3 E3F3 F3G3 G3G4"/>
    </vehicle>
    <vehicle id="t91_1" type="city_vehicles" depart="41.00">
        <route edges="G4G5 G5G4 G4G3 G3F3 F3E3 E3D3 D3D2 D2D1 D1D2"/>
    </vehicle>
    <vehicle id="t21_0" type="city_vehicles" depart="42.00">
        <route edges="A9A8 A8A7 A7A6 A6A5 A5A4 A4A3 A3B3 B3C3 C3D3 D3D2 D2D1 D1D2"/>
    </vehicle>
    <vehicle id="t124_1" type="city_vehicles" depart="43.00">
        <route edges="E4F4 F4F3 F3G3 G3H3 H3I3 I3J3 J3J2 J2J1 J1J0"/>
    </vehicle>
    <vehicle id="t94_1" type="city_vehicles" depart="43.00">
        <route edges="E1E0 E0F0 F0G0 G0G1 G1G2 G2G3 G3G4 G4H4 H4H5"/>
    </vehicle>
    <vehicle id="t132_1" type="city_vehicles" depart="44.00">
        <route edges="H4H3 H3I3 I3I2 I2I1 I1I0 I0H0"/>
    </vehicle>
    <vehicle id="t39_3" type="city_vehicles" depart="44.00">
        <route edges="J5J6 J6I6 I6H6 H6G6 G6F6 F6E6 E6D6 D6D7 D7D8 D8D7"/>
    </vehicle>
    <vehicle id="t128_1" type="city_vehicles" depart="45.00">
        <route edges="A2A1 A1A2 A2A3 A3B3"/>
    </vehicle>
    <vehicle id="t136_1" type="city_vehicles" depart="46.00">
        <route edges="A4B4 B4B3"/>
    </vehicle>
    <vehicle id="t100_1" type="city_vehicles" depart="47.00">
        <route edges="G4G3 G3H3 H3I3 I3J3 J3J2 J2J1 J1I1"/>
    </vehicle>
    <vehicle id="t106_1" type="city_vehicles" depart="47.00">
        <route edges="G4G5 G5F5 F5E5 E5D5 D5C5 C5B5 B5A5"/>
    </vehicle>
    <vehicle id="t25_0" type="city_vehicles" depart="47.00">
        <route edges="E6D6 D6D5 D5D4 D4D3 D3E3 E3F3 F3G3 G3G2 G2H2 H2H3"/>
    </vehicle>
    <vehicle id="t32_0" type="city_vehicles" depart="47.00">
        <route edges="G0H0 H0G0 G0G1 G1G2 G2G3 G3F3 F3E3 E3E4 E4F4"/>
    </vehicle>
    <vehicle id="t38_1" type="city_vehicles" depart="47.00">
        <route edges="C6C7 C7C6 C6D6 D6D5 D5D4 D4D3 D3D2 D2D1 D1D0 D0E0 E0F0 F0G0 G0H0 H0I0 I0J0 J0I0"/>
    </vehicle>
    <vehicle id="t96_2" type="city_vehicles" depart="47.00">
        <route edges="I7I8 I8I7 I7I6 I6H6 H6H5 H5H4 H4H3 H3H2 H2H1 H1H0"/>
    </vehicle>
    <vehicle id="t106_2" type="city_vehicles" depart="48.00">
        <route edges="G4G5 G5F5 F5E5 E5D5 D5C5 C5B5 B5A5"/>
    </vehicle>
    <vehicle id="t114_1" type="city_vehicles" depart="49.00">
        <route edges="C1C2 C2D2 D2D1 D1C1"/>
    </vehicle>
    <vehicle id="t144_1" type="city_vehicles" depart="49.00">
        <route edges="B6A6 A6B6 B6C6 C6D6 D6D7 D7D8 D8D9 D9E9 E9F9 F9G9 G9H9 H9I9 I9H9"/>
    </vehicle>
    <vehicle id="t40_0" type="city_vehicles" depart="49.00">
        <route edges="H9H8 H8H7 H7H6 H6I6 I6I5 I5I4 I4H4"/>
    </vehicle>
    <vehicle id="t47_0" type="city_vehicles" depart="49.00">
        <route edges="D4C4 C4C3 C3B3"/>
    </vehicle>
    <vehicle id="t69_1" type="city_vehicles" depart="49.00">
        <route edges="J6J7 J7J6 J6I6 I6H6 H6G6 G6G5 G5G4 G4G3 G3F3 F3E3 E3E2 E2D2"/>
    </vehicle>
    <vehicle id="t93_2" type="city_vehicles" depart="49.00">
        <route edges="F1F2 F2F3 F3G3 G3G4 G4G5 G5G6 G6G7 G7F7"/>
    </vehicle>
    <vehicle id="t146_1" type="city_vehicles" depart="50.00">
        <route edges="B7B6 B6C6 C6D6 D6E6 E6F6 F6G6 G6G5 G5G4 G4H4 H4I4 I4I3"/>
    </vehicle>
    <vehicle id="t148_2" type="city_vehicles" depart="50.00">
        <route edges="H5H6 H6G6 G6F6 F6E6 E6D6 D6C6 C6B6 B6A6 A6A5 A5A4 A4B4"/>
    </vehicle>
    <vehicle id="t41_3" type="city_vehicles" depart="50.00">
        <route edges="A5A4 A4A5 A5A6 A6A5"/>
    </vehicle>
    <vehicle id="t43_1" type="city_vehicles" depart="50.00">
        <route edges="D8C8 C8D8 D8D7 D7D6 D6D5 D5D4 D4D3 D3E3 E3F3 F3G3 G3H3 H3I3 I3J3 J3J2 J2J1"/>
    </vehicle>
    <vehicle id="t113_0" type="city_vehicles" depart="51.00">
        <route edges="A0A1 A1A2 A2A3 A3B3 B3C3 C3D3 D3E3 E3F3 F3G3 G3G4 G4G5 G5G6"/>
    </vehicle>
    <vehicle id="t143_1" type="city_vehicles" depart="51.00">
        <route edges="I0J0 J0I0 I0H0 H0G0 G0F0 F0E0 E0D0 D0C0 C0B0 B0A0 A0A1 A1A2"/>
    </vehicle>
    <vehicle id="t2_2" type="city_vehicles" depart="52.00">
        <route edges="J9I9 I9H9 H9G9 G9G8 G8G7 G7G6 G6F6 F6E6"/>
    </vehicle>
    <vehicle id="t82_1" type="city_vehicles" depart="52.00">
        <route edges="J6I6 I6H6 H6G6 G6F6 F6E6 E6D6 D6D5 D5D4 D4D3 D3D2 D2C2"/>
    </vehicle>
    <vehicle id="t106_3" type="city_vehicles" depart="53.00">
        <route edges="G4G5 G5F5 F5E5 E5D5 D5C5 C5B5 B5A5"/>
    </vehicle>
    <vehicle id="t49_2" type="city_vehicles" depart="53.00">
        <route edges="H5H6 H6I6 I6I5 I5I4 I4I3 I3I2 I2I1 I1J1"/>
    </vehicle>
    <vehicle id="t78_0" type="city_vehicles" depart="53.00">
        <route edges="D0C0 C0D0 D0D1 D1D2 D2D3 D3E3 E3F3 F3G3"/>
    </vehicle>
    <vehicle id="t127_0" type="city_vehicles" depart="54.00">
        <route edges="D1D0 D0D1 D1D2 D2D3 D3E3 E3F3 F3G3 G3G4 G4G5 G5H5 H5I5 I5I6"/>
    </vehicle>
    <vehicle id="t26_1" type="city_vehicles" depart="54.00">
        <route edges="C3C2 C2C1 C1C0 C0B0 B0C0"/>
    </vehicle>
    <vehicle id="t38_2" type="city_vehicles" depart="54.00">
        <route edges="C6C7 C7C6 C6D6 D6D5 D5D4 D4D3 D3D2 D2D1 D1D0 D0E0 E0F0 F0G0 G0H0 H0I0 I0J0 J0I0"/>
    </vehicle>
    <vehicle id="t1_0" type="city_vehicles" depart="55.00">
        <route edges="F0F1 F1E1 E1D1 D1D2 D2D3 D3C3 C3B3 B3A3 A3A2"/>
    </vehicle>
    <vehicle id="t101_1" type="city_vehicles" depart="56.00">
        <route edges="I0H0 H0G0 G0G1 G1G2 G2G3 G3F3 F3E3 E3D3"/>
    </vehicle>
    <vehicle id="t110_0" type="city_vehicles" depart="57.00">
        <route edges="G7G8 G8G7 G7G6 G6G5 G5G4 G4G3 G3G4"/>
    </vehicle>
    <vehicle id="t13_2" type="city_vehicles" depart="57.00">
        <route edges="B4C4 C4C5 C5C6 C6C7 C7C8"/>
    </vehicle>
    <vehicle id="t27_1" type="city_vehicles" depart="57.00">
        <route edges="H0G0 G0G1 G1G2 G2G3 G3H3 H3I3 I3J3 J3J4 J4J5 J5J4"/>
    </vehicle>
    <vehicle id="t81_0" type="city_vehicles" depart="57.00">
        <route edges="J7J6 J6I6 I6H6 H6G6 G6G5 G5G4 G4G3 G3G2 G2G1 G1F1 F1G1"/>
    </vehicle>
    <vehicle id="t124_2" type="city_vehicles" depart="58.00">
        <route edges="E4F4 F4F3 F3G3 G3H3 H3I3 I3J3 J3J2 J2J1 J1J0"/>
    </vehicle>
    <vehicle id="t135_2" type="city_vehicles" depart="58.00">
        <route edges="I6H6 H6G6 G6G7 G7G6"/>
    </vehicle>
    <vehicle id="t141_0" type="city_vehicles" depart="58.00">
        <route edges="G5H5 H5G5 G5G4 G4G3 G3F3 F3E3 E3D3 D3C3 C3B3 B3C3"/>
    </vehicle>
    <vehicle id="t49_3" type="city_vehicles" depart="58.00">
        <route edges="H5H6 H6I6 I6I5 I5I4 I4I3 I3I2 I2I1 I1J1"/>
    </vehicle>
    <vehicle id="t28_1" type="city_vehicles" depart="59.00">
        <route edges="B4C4 C4B4 B4A4 A4A5 A5A6 A6A7 A7A8 A8A7"/>
    </vehicle>
    <vehicle id="t71_1" type="city_vehicles" depart="59.00">