<?xml version="1.0"?>

<!-- generated on 05/02/11 13:22:18 by SUMO duarouter Version 0.12.3
<?xml version="1.0" encoding="iso-8859-1"?>

<configuration xmlns:xsi="http://www.w3.org/2001/XMLSchema-instance" xsi:noNamespaceSchemaLocation="http://sumo.sf.net/xsd/duarouterConfiguration.xsd">

    <input>
        <net-file value="manhattan.net.xml"/>
        <flow-definition value="trips.trips.xml"/>
    </input>

    <output>
        <output-file value="manhattan_light.rou.xml"/>
    </output>

    <processing>
        <randomize-flows value="true"/>
    </processing>

</configuration>
-->

<routes>
    <vehicle id="t136_0" type="city_vehicles" depart="0.00">
        <route edges="E5F5 F5F6 F6E6 E6E7"/>
    </vehicle>
    <vehicle id="t45_0" type="city_vehicles" depart="0.00">
        <route edges="H6H7 H7G7 G7G8 G8G9 G9F9 F9E9 E9D9 D9C9"/>
    </vehicle>
    <vehicle id="t51_0" type="city_vehicles" depart="0.00">
        <route edges="I9I8 I8I9 I9H9 H9G9 G9F9 F9E9 E9D9 D9C9 C9B9 B9A9 A9B9"/>
    </vehicle>
    <vehicle id="t106_0" type="city_vehicles" depart="1.00">
        <route edges="F9G9 G9G8 G8G7 G7G6 G6G5 G5G4 G4F4 F4G4"/>
    </vehicle>
    <vehicle id="t131_0" type="city_vehicles" depart="1.00">
        <route edges="J3I3 I3H3 H3G3 G3F3 F3E3 E3D3 D3C3 C3B3 B3A3 A3A4 A4A5 A5A6 A6A7 A7A8 A8A9 A9B9"/>
    </vehicle>
    <vehicle id="t98_0" type="city_vehicles" depart="1.00">
        <route edges="A7B7 B7B6 B6C6 C6D6 D6C6"/>
    </vehicle>
    <vehicle id="t113_0" type="city_vehicles" depart="2.00">
        <route edges="C7C6 C6D6 D6D7 D7D8 D8E8 E8E9"/>
    </vehicle>
    <vehicle id="t145_0" type="city_vehicles" depart="2.00">
        <route edges="D1D0 D0D1 D1D2 D2D3 D3D4 D4D5 D5D6 D6E6 E6F6 F6G6 G6G5"/>
    </vehicle>
    <vehicle id="t42_0" type="city_vehicles" depart="2.00">
        <route edges="E4E5 E5E6 E6F6 F6G6 G6G7 G7G8 G8G9"/>
    </vehicle>
    <vehicle id="t35_0" type="city_vehicles" depart="3.00">
        <route edges="F3G3 G3F3 F3E3 E3D3 D3D4 D4E4"/>
    </vehicle>
    <vehicle id="t59_0" type="city_vehicles" depart="3.00">
        <route edges="E3F3 F3G3 G3G4 G4G5 G5G6 G6G7 G7G8 G8G9 G9H9 H9I9 I9J9 J9I9"/>
    </vehicle>
    <vehicle id="t137_0" type="city_vehicles" depart="5.00">
        <route edges="E7E8 E8E7 E7E6 E6F6 F6G6 G6G5 G5G4 G4G3 G3G2 G2G1 G1G0 G0H0 H0I0 I0J0"/>
    </vehicle>
    <vehicle id="t145_1" type="city_vehicles" depart="5.00">
        <route edges="D1D0 D0D1 D1D2 D2D3 D3D4 D4D5 D5D6 D6E6 E6F6 F6G6 G6G5"/>
    </vehicle>
    <vehicle id="t46_0" type="city_vehicles" depart="6.00">
        <route edges="G1G2 G2G3 G3H3 H3I3"/>
    </vehicle>
    <vehicle id="t33_0" type="city_vehicles" depart="7.00">
        <route edges="I4H4 H4H5 H5H6 H6I6 I6I7 I7H7"/>
    </vehicle>
    <vehicle id="t5_0" type="city_vehicles" depart="7.00">
        <route edges="B2A2 A2A3 A3B3 B3C3 C3D3 D3E3"/>
    </vehicle>
    <vehicle id="t88_0" type="city_vehicles" depart="7.00">
        <route edges="B6A6 A6A5 A5A4 A4A3 A3A2 A2A1 A1A0 A0B0 B0C0 C0D0"/>
    </vehicle>
    <vehicle id="t102_0" type="city_vehicles" depart="8.00">
        <route edges="D6D7 D7D6 D6D5 D5D4 D4D3 D3E3 E3F3 F3G3 G3G2 G2G1 G1G0"/>
    </vehicle>
    <vehicle id="t1_0" type="city_vehicles" depart="9.00">
        <route edges="B7B8 B8B9 B9C9 C9D9 D9E9 E9F9"/>
    </vehicle>
    <vehicle id="t18_0" type="city_vehicles" depart="10.00">
        <route edges="A3A4 A4A5 A5A6 A6B6 B6C6 C6D6 D6E6 E6D6"/>
    </vehicle>
    <vehicle id="t19_0" type="city_vehicles" depart="12.00">
        <route edges="B8B7 B7B8 B8B9 B9C9 C9D9 D9E9 E9F9 F9E9"/>
    </vehicle>
    <vehicle id="t96_0" type="city_vehicles" depart="12.00">
        <route edges="I7H7 H7H6 H6I6 I6I5 I5I4 I4I3"/>
    </vehicle>
    <vehicle id="t104_0" type="city_vehicles" depart="13.00">
        <route edges="E0F0 F0G0 G0H0 H0I0 I0I1 I1I0"/>
    </vehicle>
    <vehicle id="t118_0" type="city_vehicles" depart="13.00">
        <route edges="J9J8 J8J7 J7J6 J6I6 I6H6 H6G6 G6G5 G5G4 G4G3 G3G2 G2G1 G1G0"/>
    </vehicle>
    <vehicle id="t49_0" type="city_vehicles" depart="13.00">
        <route edges="C6D6 D6D7 D7D8 D8D9 D9E9 E9F9 F9G9 G9H9 H9I9 I9H9"/>
    </vehicle>
    <vehicle id="t105_0" type="city_vehicles" depart="14.00">
        <route edges="E4E5 E5E4 E4E3 E3F3 F3G3 G3H3 H3I3 I3I2 I2I3"/>
    </vehicle>
    <vehicle id="t93_0" type="city_vehicles" depart="15.00">
        <route edges="B7C7 C7D7 D7E7 E7F7 F7E7"/>
    </vehicle>
    <vehicle id="t62_0" type="city_vehicles" depart="16.00">
        <route edges="B0C0 C0D0 D0D1 D1D2 D2D3 D3D4 D4D5 D5D6 D6E6 E6F6 F6G6 G6G7 G7G8 G8G9"/>
    </vehicle>
    <vehicle id="t120_0" type="city_vehicles" depart="17.00">
        <route edges="I3J3 J3J4 J4J5 J5J6"/>
    </vehicle>
    <vehicle id="t132_0" type="city_vehicles" depart="17.00">
        <route edges="B2B1 B1B2 B2B3 B3C3 C3D3 D3E3 E3F3 F3G3 G3G4 G4G5 G5G4"/>
    </vehicle>
    <vehicle id="t79_0" type="city_vehicles" depart="17.00">
        <route edges="F8F9 F9E9 E9E8 E8E7 E7E6 E6E5 E5E4 E4D4"/>
    </vehicle>
    <vehicle id="t19_1" type="city_vehicles" depart="18.00">
        <route edges="B8B7 B7B8 B8B9 B9C9 C9D9 D9E9 E9F9 F9E9"/>
    </vehicle>
    <vehicle id="t21_0" type="city_vehicles" depart="18.00">
        <route edges="B7B8 B8B7 B7B6 B6C6 C6D6 D6E6 E6F6 F6G6 G6H6 H6H7"/>
    </vehicle>
    <vehicle id="t52_0" type="city_vehicles" depart="18.00">
        <route edges="B8A8 A8B8 B8C8 C8D8 D8D7"/>
    </vehicle>
    <vehicle id="t6_0" type="city_vehicles" depart="18.00">
        <route edges="I0J0 J0I0 I0H0 H0H1 H1H2 H2H1"/>
    </vehicle>
    <vehicle id="t22_0" type="city_vehicles" depart="19.00">
        <route edges="G0G1 G1G2 G2G3 G3F3 F3E3 E3D3 D3C3 C3B3 B3A3 A3A4 A4A5 A5A6"/>
    </vehicle>
    <vehicle id="t116_0" type="city_vehicles" depart="20.00">
        <route edges="C3C2 C2D2 D2E2 E2F2 F2G2 G2H2 H2I2 I2J2 J2I2"/>
    </vehicle>
    <vehicle id="t133_0" type="city_vehicles" depart="22.00">
        <route edges="B0A0 A0A1 A1A2 A2A3 A3B3 B3C3 C3D3 D3E3 E3F3 F3G3 G3G4 G4H4 H4H3"/>
    </vehicle>
    <vehicle id="t82_0" type="city_vehicles" depart="22.00">
        <route edges="F8F9 F9E9 E9E8"/>
    </vehicle>
    <vehicle id="t110_0" type="city_vehicles" depart="25.00">
        <route edges="C2C3 C3C4 C4C5 C5C6 C6C7 C7B7"/>
    </vehicle>
    <vehicle id="t13_0" type="city_vehicles" depart="25.00">
        <route edges="C2D2 D2D3 D3E3 E3F3 F3G3 G3G4 G4G5 G5H5 H5I5 I5I4"/>
    </vehicle>
    <vehicle id="t72_0" type="city_vehicles" depart="26.00">
        <route edges="B3B2 B2B3 B3B4 B4B5 B5B6 B6C6"/>
    </vehicle>
    <vehicle id="t14_0" type="city_vehicles" depart="27.00">
        <route edges="D4D5 D5D4 D4D3 D3E3 E3F3 F3G3 G3H3 H3I3 I3J3 J3J2 J2J1 J1I1"/>
    </vehicle>
    <vehicle id="t43_0" type="city_vehicles" depart="27.00">
        <route edges="J4J3 J3I3 I3H3 H3G3 G3F3 F3E3 E3E4"/>
    </vehicle>
    <vehicle id="t143_0" type="city_vehicles" depart="28.00">
        <route edges="E7F7 F7G7 G7G8 G8G9 G9H9 H9G9"/>
    </vehicle>
    <vehicle id="t91_0" type="city_vehicles" depart="28.00">
        <route edges="B2C2 C2D2 D2E2"/>
    </vehicle>
    <vehicle id="t60_0" type="city_vehicles" depart="30.00">
        <route edges="A8A7 A7A8 A8A9 A9A8"/>
    </vehicle>
    <vehicle id="t109_0" type="city_vehicles" depart="31.00">
        <route edges="H4H3 H3G3 G3F3 F3E3 E3D3 D3D4 D4D5 D5D6 D6C6 C6C5"/>
    </vehicle>
    <vehicle id="t34_0" type="city_vehicles" depart="31.00">
        <route edges="B9A9 A9A8 A8A7 A7A6 A6A5 A5A4 A4A3 A3B3 B3C3 C3D3 D3D2 D2D1 D1D0 D0E0 E0F0 F0G0 G0H0 H0I0 I0J0"/>
    </vehicle>
    <vehicle id="t111_0" type="city_vehicles" depart="32.00">
        <route edges="C9C8 C8D8 D8D7 D7D6 D6D5 D5D4 D4D3 D3D2 D2D1 D1D0 D0E0 E0F0 F0G0 G0H0 H0G0"/>
    </vehicle>
    <vehicle id="t29_0" type="city_vehicles" depart="32.00">
        <route edges="A9B9 B9C9 C9D9 D9D8 D8D7 D7D6 D6D5 D5D4 D4D3 D3E3 E3F3 F3G3 G3G2"/>
    </vehicle>
    <vehicle id="t101_0" type="city_vehicles" depart="33.00">
        <route edges="J3J2 J2J1 J1J0 J0I0 I0H0 H0G0 G0F0 F0G0"/>
    </vehicle>
    <vehicle id="t13_1" type="city_vehicles" depart="33.00">
        <route edges="C2D2 D2D3 D3E3 E3F3 F3G3 G3G4 G4G5 G5H5 H5I5 I5I4"/>
    </vehicle>
    <vehicle id="t121_0" type="city_vehicles" depart="34.00">
        <route edges="B3A3 A3B3 B3C3 C3D3 D3D2 D2D1 D1D0 D0E0 E0F0 F0G0 G0F0"/>
    </vehicle>
    <vehicle id="t77_0" type="city_vehicles" depart="34.00">
        <route edges="F9G9 G9F9 F9E9 E9D9 D9D8 D8D7 D7D6 D6D5 D5D4 D4D3 D3D2 D2D1 D1D0 D0C0 C0B0"/>
    </vehicle>
    <vehicle id="t17_0" type="city_vehicles" depart="35.00">
        <route edges="H3H4 H4G4 G4G5 G5G6 G6F6 F6E6 E6D6 D6C6 C6C5"/>
    </vehicle>
    <vehicle id="t113_1" type="city_vehicles" depart="36.00">
        <route edges="C7C6 C6D6 D6D7 D7D8 D8E8 E8E9"/>
    </vehicle>
    <vehicle id="t144_0" type="city_vehicles" depart="36.00">
        <route edges="F8G8 G8G7 G7G6 G6G5 G5G4 G4G3 G3H3 H3I3 I3J3"/>
    </vehicle>
    <vehicle id="t8_0" type="city_vehicles" depart="37.00">
        <route edges="C4C3 C3D3 D3D4 D4D5 D5D6 D6D7 D7D8 D8E8 E8F8 F8E8"/>
    </vehicle>
    <vehicle id="t70_0" type="city_vehicles" depart="38.00">
        <route edges="A9B9 B9C9 C9D9 D9D8 D8D7 D7D6 D6D5 D5D4 D4D3 D3E3 E3F3 F3G3 G3G2 G2H2 H2H3"/>
    </vehicle>
    <vehicle id="t149_0" type="city_vehicles" depart="39.00">
        <route edges="F8F7 F7F6 F6E6 E6E5 E5F5"/>
    </vehicle>
    <vehicle id="t53_0" type="city_vehicles" depart="39.00">
        <route edges="I7I6 I6H6 H6G6 G6F6 F6E6 E6D6 D6D5 D5D4 D4D3 D3D2 D2D1 D1D0 D0C0 C0B0"/>
    </vehicle>
    <vehicle id="t63_0" type="city_vehicles" depart="39.00">
        <route edges="A7A6 A6B6 B6C6 C6D6 D6D7 D7C7"/>
    </vehicle>
    <vehicle id="t99_0" type="city_vehicles" depart="39.00">
        <route edges="G2F2 F2F3 F3G3 G3G4 G4H4 H4H3"/>
    </vehicle>
    <vehicle id="t47_0" type="city_vehicles" depart="40.00">
        <route edges="G2H2 H2G2 G2G3 G3F3 F3E3 E3D3 D3C3 C3B3"/>
    </vehicle>
    <vehicle id="t32_0" type="city_vehicles" depart="41.00">
        <route edges="H6G6 G6G5 G5G4 G4H4 H4H3"/>
    </vehicle>
    <vehicle id="t56_0" type="city_vehicles" depart="42.00">
        <route edges="C6D6 D6D5 D5D4 D4D3 D3E3 E3F3 F3G3 G3H3 H3I3 I3J3 J3J2 J2J1 J1I1"/>
    </vehicle>
    <vehicle id="t106_1" type="city_vehicles" depart="44.00">
        <route edges="F9G9 G9G8 G8G7 G7G6 G6G5 G5G4 G4F4 F4G4"/>
    </vehicle>
    <vehicle id="t101_1" type="city_vehicles" depart="47.00">
        <route edges="J3J2 J2J1 J1J0 J0I0 I0H0 H0G0 G0F0 F0G0"/>
    </vehicle>
    <vehicle id="t69_0" type="city_vehicles" depart="47.00">
        <route edges="B7A7 A7A6 A6A5"/>
    </vehicle>
    <vehicle id="t85_0" type="city_vehicles" depart="47.00">
        <route edges="I0J0 J0I0 I0H0 H0G0 G0G1 G1G2 G2G3 G3G4 G4G5 G5G6 G6F6 F6E6 E6D6"/>
    </vehicle>
    <vehicle id="t107_0" type="city_vehicles" depart="49.00">
        <route edges="I4I5 I5H5 H5G5 G5G4 G4G3 G3F3 F3E3 E3D3 D3C3 C3B3 B3A3 A3A2 A2A1 A1A0 A0B0"/>
    </vehicle>
    <vehicle id="t126_0" type="city_vehicles" depart="49.00">
        <route edges="E2D2 D2D3 D3C3 C3B3 B3B4 B4B5 B5C5"/>
    </vehicle>
    <vehicle id="t111_1" type="city_vehicles" depart="50.00">
        <route edges="C9C8 C8D8 D8D7 D7D6 D6D5 D5D4 D4D3 D3D2 D2D1 D1D0 D0E0 E0F0 F0G0 G0H0 H0G0"/>
    </vehicle>
    <vehicle id="t115_0" type="city_vehicles" depart="50.00">
        <route edges="C3B3 B3C3 C3D3 D3E3 E3F3 F3G3 G3G2 G2G1"/>
    </vehicle>
    <vehicle id="t7_0" type="city_vehicles" depart="52.00">
        <route edges="G9H9 H9G9 G9F9 F9E9 E9D9 D9D8 D8D7 D7C7 C7B7"/>
    </vehicle>
    <vehicle id="t132_1" type="city_vehicles" depart="53.00">
        <route edges="B2B1 B1B2 B2B3 B3C3 C3D3 D3E3 E3F3 F3G3 G3G4 G4G5 G5G4"/>
    </vehicle>
    <vehicle id="t101_2" type="city_vehicles" depart="54.00">
        <route edges="J3J2 J2J1 J1J0 J0I0 I0H0 H0G0 G0F0 F0G0"/>
    </vehicle>
    <vehicle id="t69_1" type="city_vehicles" depart="54.00">
        <route edges="B7A7 A7A6 A6A5"/>
    </vehicle>
    <vehicle id="t3_0" type="city_vehicles" depart="55.00">
        <route edges="E4E5 E5E6 E6F6 F6G6 G6G7 G7G8 G8H8 H8H7"/>
    </vehicle>
    <vehicle id="t37_0" type="city_vehicles" depart="57.00">
        <route edges="A6A5 A5A6 A6A7 A7A8 A8B8 B8C8"/>
    </vehicle>
    <vehicle id="t73_0" type="city_vehicles" depart="57.00">
        <route edges="A7A6 A6A5 A5A4 A4A3 A3B3 B3C3 C3D3 D3E3 E3F3 F3G3 G3H3 H3I3 I3J3 J3J2 J2J3"/>
    </vehicle>
    <vehicle id="t130_0" type="city_vehicles" depart="58.00">
        <route edges="H5H4 H4G4 G4G3 G3F3 F3E3 E3D3 D3C3 C3B3 B3A3 A3A2 A2A1 A1A0 A0A1"/>
    </vehicle>
    <vehicle id="t75_0" type="city_vehicles" depart="59.00">
        <route edges="F3G3 G3F3 F3E3 E3D3 D3D4 D4D5 D5D6 D6C6 C6B6"/>
    </vehicle>
    <vehicle id="t146_0" type="city_vehicles" depart="63.00">
        <route edges="A4A5 A5A4 A4A3 A3B3 B3C3 C3D3 D3D2 D2D1 D1D0 D0E0 E0F0 F0G0 G0G1"/>
    </vehicle>
    <vehicle id="t38_0" type="city_vehicles" depart="63.00">
        <route edges="D3E3 E3F3 F3F2 F2F1 F1F0 F0E0"/>
    </vehicle>
    <vehicle id="t43_1" type="city_vehicles" depart="63.00">
        <route edges="J4J3 J3I3 I3H3 H3G3 G3F3 F3E3 E3E4"/>
    </vehicle>
    <vehicle id="t44_0" type="city_vehicles" depart="63.00">
        <route edges="I5J5 J5J4 J4J3 J3J2 J2J3"/>
    </vehicle>
    <vehicle id="t120_1" type="city_vehicles" depart="65.00">
        <route edges="I3J3 J3J4 J4J5 J5J6"/>
    </vehicle>
    <vehicle id="t76_0" type="city_vehicles" depart="65.00">
        <route edges="C8C7 C7C6 C6B6 B6C6"/>
    </vehicle>
    <vehicle id="t100_0" type="city_vehicles" depart="67.00">
        <route edges="D3D4 D4D5 D5C5 C5C6"/>
    </vehicle>
    <vehicle id="t59_1" type="city_vehicles" depart="67.00">
        <route edges="E3F3 F3G3 G3G4 G4G5 G5G6 G6G7 G7G8 G8G9 G9H9 H9I9 I9J9 J9I9"/>
    </vehicle>
    <vehicle id="t8_1" type="city_vehicles" depart="68.00">
        <route edges="C4C3 C3D3 D3D4 D4D5 D5D6 D6D7 D7D8 D8E8 E8F8 F8E8"/>
    </vehicle>
    <vehicle id="t14_1" type="city_vehicles" depart="69.00">
        <route edges="D4D5 D5D4 D4D3 D3E3 E3F3 F3G3 G3H3 H3I3 I3J3 J3J2 J2J1 J1I1"/>
    </vehicle>
    <vehicle id="t20_0" type="city_vehicles" depart="69.00">
        <route edges="G6G7 G7G6 G6G5 G5G4 G4G3 G3H3 H3G3"/>
    </vehicle>
    <vehicle id="t17_1" type="city_vehicles" depart="72.00">
        <route edges="H3H4 H4G4 G4G5 G5G6 G6F6 F6E6 E6D6 D6C6 C6C5"/>
    </vehicle>
    <vehicle id="t25_0" type="city_vehicles" depart="72.00">
        <route edges="I3J3 J3J4 J4J5 J5J6 J6J7 J7J8 J8I8 I8H8"/>
    </vehicle>
    <vehicle id="t38_1" type="city_vehicles" depart="73.00">
        <route edges="D3E3 E3F3 F3F2 F2F1 F1F0 F0E0"/>
    </vehicle>
    <vehicle id="t0_0" type="city_vehicles" depart="75.00">
        <route edges="H0I0 I0J0 J0J1 J1J2 J2J3 J3J4 J4I4"/>
    </vehicle>
    <vehicle id="t91_1" type="city_vehicles" depart="75.00">
        <route edges="B2C2 C2D2 D2E2"/>
    </vehicle>
    <vehicle id="t149_1" type="city_vehicles" depart="76.00">
        <route edges="F8F7 F7F6 F6E6 E6E5 E5F5"/>
    </vehicle>
    <vehicle id="t47_1" type="city_vehicles" depart="76.00">
        <route edges="G2H2 H2G2 G2G3 G3F3 F3E3 E3D3 D3C3 C3B3"/>
    </vehicle>
    <vehicle id="t12_0" type="city_vehicles" depart="77.00">
        <route edges="J0I0 I0H0 H0H1 H1H2 H2H3 H3H4 H4H5 H5H6 H6H7 H7H8 H8H9"/>
    </vehicle>
    <vehicle id="t16_0" type="city_vehicles" depart="78.00">
        <route edges="E2E1 E1E2 E2E3 E3F3 F3F4 F4F5 F5F6 F6F7 F7F8 F8F9 F9E9"/>
    </vehicle>
    <vehicle id="t67_0" type="city_vehicles" depart="78.00">
        <route edges="E0F0 F0E0 E0D0 D0C0 C0C1 C1B1"/>
    </vehicle>
    <vehicle id="t126_1" type="city_vehicles" depart="80.00">
        <route edges="E2D2 D2D3 D3C3 C3B3 B3B4 B4B5 B5C5"/>
    </vehicle>
    <vehicle id="t48_0" type="city_vehicles" depart="80.00">
        <route edges="J1J0 J0I0 I0H0 H0G0 G0F0 F0E0 E0D0 D0C0 C0B0 B0A0 A0B0"/>
    </vehicle>
    <vehicle id="t26_0" type="city_vehicles" depart="81.00">
        <route edges="F6F7 F7F6 F6E6 E6D6 D6D5 D5D4 D4D3 D3D2 D2D1 D1D0"/>
    </vehicle>
    <vehicle id="t79_1" type="city_vehicles" depart="81.00">
        <route edges="F8F9 F9E9 E9E8 E8E7 E7E6 E6E5 E5E4 E4D4"/>
    </vehicle>
    <vehicle id="t128_0" type="city_vehicles" depart="82.00">
        <route edges="G0H0 H0G0 G0F0 F0E0 E0D0 D0D1 D1D2 D2D3"/>
    </vehicle>
    <vehicle id="t40_0" type="city_vehicles" depart="82.00">
        <route edges="C2D2 D2D1 D1E1 E1F1 F1G1 G1G0"/>
    </vehicle>
    <vehicle id="t24_0" type="city_vehicles" depart="83.00">
        <route edges="C6C5 C5C6 C6D6 D6D7 D7D6"/>
    </vehicle>
    <vehicle id="t82_1" type="city_vehicles" depart="85.00">
        <route edges="F8F9 F9E9 E9E8"/>
    </vehicle>
    <vehicle id="t137_1" type="city_vehicles" depart="88.00">
        <route edges="E7E8 E8E7 E7E6 E6F6 F6G6 G6G5 G5G4 G4G3 G3G2 G2G1 G1G0 G0H0 H0I0 I0J0"/>
    </vehicle>
    <vehicle id="t141_0" type="city_vehicles" depart="88.00">
        <route edges="A1A2 A2A3 A3A4 A4A5 A5A6 A6B6 B6C6 C6C7 C7D7"/>
    </vehicle>
    <vehicle id="t98_1" type="city_vehicles" depart="88.00">
        <route edges="A7B7 B7B6 B6C6 C6D6 D6C6"/>
    </vehicle>
    <vehicle id="t71_0" type="city_vehicles" depart="89.00">
        <route edges="J2J1 J1J2 J2J3 J3I3 I3H3 H3G3 G3G4 G4G5 G5G6 G6G7 G7G8 G8F8 F8F7"/>
    </vehicle>
    <vehicle id="t93_1" type="city_vehicles" depart="89.00">
        <route edges="B7C7 C7D7 D7E7 E7F7 F7E7"/>
    </vehicle>
    <vehicle id="t109_1" type="city_vehicles" depart="90.00">
        <route edges="H4H3 H3G3 G3F3 F3E3 E3D3 D3D4 D4D5 D5D6 D6C6 C6C5"/>
    </vehicle>
    <vehicle id="t114_0" type="city_vehicles" depart="91.00">
        <route edges="H9I9 I9I8 I8I7 I7I6 I6I7"/>
    </vehicle>
    <vehicle id="t55_0" type="city_vehicles" depart="93.00">
        <route edges="H6I6 I6H6 H6G6 G6G5 G5G4 G4G3 G3F3 F3E3 E3F3"/>
    </vehicle>
    <vehicle id="t125_0" type="city_vehicles" depart="94.00">
        <route edges="G0G1 G1G2 G2H2 H2G2"/>
    </vehicle>
    <vehicle id="t87_0" type="city_vehicles" depart="94.00">
        <route edges="C7C6 C6C5 C5C4 C4C3 C3C2 C2C1"/>
    </vehicle>
    <vehicle id="t40_1" type="city_vehicles" depart="96.00">
        <route edges="C2D2 D2D1 D1E1 E1F1 F1G1 G1G0"/>
    </vehicle>
    <vehicle id="t57_0" type="city_vehicles" depart="96.00">
        <route edges="G9F9 F9F8 F8F7 F7F6 F6F5 F5F4 F4E4"/>
    </vehicle>
    <vehicle id="t148_0" type="city_vehicles" depart="98.00">
        <route edges="B3C3 C3D3 D3D2 D2D1 D1D0 D0E0"/>
    </vehicle>
    <vehicle id="t15_0" type="city_vehicles" depart="98.00">
        <route edges="G0F0 F0E0 E0D0 D0D1 D1D2 D2D3 D3C3 C3B3 B3A3 A3A2"/>
    </vehicle>
    <vehicle id="t5_1" type="city_vehicles" depart="99.00">
        <route edges="B2A2 A2A3 A3B3 B3C3 C3D3 D3E3"/>
    </vehicle>
    <vehicle id="t65_0" type="city_vehicles" depart="100.00">
        <route edges="C9B9 B9C9 C9D9 D9D8 D8D9"/>
    </vehicle>
    <vehicle id="t66_0" type="city_vehicles" depart="100.00">
        <route edges="G5G6 G6F6 F6F7 F7E7"/>
    </vehicle>
    <vehicle id="t34_1" type="city_vehicles" depart="101.00">
        <route edges="B9A9 A9A8 A8A7 A7A6 A6A5 A5A4 A4A3 A3B3 B3C3 C3D3 D3D2 D2D1 D1D0 D0E0 E0F0 F0G0 G0H0 H0I0 I0J0"/>
    </vehicle>
    <vehicle id="t76_1" type="city_vehicles" depart="103.00">
        <route edges="C8C7 C7C6 C6B6 B6C6"/>
    </vehicle>
    <vehicle id="t16_1" type="city_vehicles" depart="104.00">
        <route edges="E2E1 E1E2 E2E3 E3F3 F3F4 F4F5 F5F6 F6F7 F7F8 F8F9 F9E9"/>
    </vehicle>
    <vehicle id="t53_1" type="city_vehicles" depart="106.00">
        <route edges="I7I6 I6H6 H6G6 G6F6 F6E6 E6D6 D6D5 D5D4 D4D3 D3D2 D2D1 D1D0 D0C0 C0B0"/>
    </vehicle>
    <vehicle id="t33_1" type="city_vehicles" depart="107.00">
        <route edges="I4H4 H4H5 H5H6 H6I6 I6I7 I7H7"/>
    </vehicle>
    <vehicle id="t86_0" type="city_vehicles" depart="107.00">
        <route edges="D7C7 C7C6 C6B6 B6A6 A6A5 A5A4 A4A3 A3A2 A2A1 A1A0 A0B0"/>
    </vehicle>
    <vehicle id="t39_0" type="city_vehicles" depart="108.00">
        <route edges="E0F0 F0G0 G0G1 G1G2 G2G3 G3F3"/>
    </vehicle>
    <vehicle id="t75_1" type="city_vehicles" depart="108.00">
        <route edges="F3G3 G3F3 F3E3 E3D3 D3D4 D4D5 D5D6 D6C6 C6B6"/>
    </vehicle>
    <vehicle id="t111_2" type="city_vehicles" depart="109.00">
        <route edges="C9C8 C8D8 D8D7 D7D6 D6D5 D5D4 D4D3 D3D2 D2D1 D1D0 D0E0 E0F0 F0G0 G0H0 H0G0"/>
    </vehicle>
    <vehicle id="t142_0" type="city_vehicles" depart="109.00">
        <route edges="F9E9 E9F9 F9F8 F8F7 F7F6 F6F5 F5F4 F4F3 F3F2 F2F1 F1F0"/>
    </vehicle>
    <vehicle id="t90_0" type="city_vehicles" depart="110.00">
        <route edges="I6J6 J6I6 I6H6 H6G6 G6F6 F6E6 E6D6 D6C6"/>
    </vehicle>
    <vehicle id="t41_0" type="city_vehicles" depart="111.00">
        <route edges="E4F4 F4E4 E4D4 D4D5 D5D6 D6C6 C6B6 B6B7 B7B8 B8A8"/>
    </vehicle>
    <vehicle id="t81_0" type="city_vehicles" depart="112.00">
        <route edges="I6I7 I7H7 H7H6"/>
    </vehicle>
    <vehicle id="t103_0" type="city_vehicles" depart="113.00">
        <route edges="A3A4 A4A5 A5A6 A6B6 B6C6 C6D6 D6E6 E6F6 F6G6 G6G5"/>
    </vehicle>
    <vehicle id="t81_1" type="city_vehicles" depart="114.00">
        <route edges="I6I7 I7H7 H7H6"/>
    </vehicle>
    <vehicle id="t107_1" type="city_vehicles" depart="115.00">
        <route edges="I4I5 I5H5 H5G5 G5G4 G4G3 G3F3 F3E3 E3D3 D3C3 C3B3 B3A3 A3A2 A2A1 A1A0 A0B0"/>
    </vehicle>
    <vehicle id="t3_1" type="city_vehicles" depart="115.00">
        <route edges="E4E5 E5E6 E6F6 F6G6 G6G7 G7G8 G8H8 H8H7"/>
    </vehicle>
    <vehicle id="t78_0" type="city_vehicles" depart="115.00">
        <route edges="A1A0 A0A1 A1A2 A2A3 A3A4"/>
    </vehicle>
    <vehicle id="t144_1" type="city_vehicles" depart="116.00">
        <route edges="F8G8 G8G7 G7G6 G6G5 G5G4 G4G3 G3H3 H3I3 I3J3"/>
    </vehicle>
    <vehicle id="t87_1" type="city_vehicles" depart="116.00">
        <route edges="C7C6 C6C5 C5C4 C4C3 C3C2 C2C1"/>
    </vehicle>
    <vehicle id="t90_1" type="city_vehicles" depart="116.00">
        <route edges="I6J6 J6I6 I6H6 H6G6 G6F6 F6E6 E6D6 D6C6"/>
    </vehicle>
    <vehicle id="t73_1" type="city_vehicles" depart="117.00">
        <route edges="A7A6 A6A5 A5A4 A4A3 A3B3 B3C3 C3D3 D3E3 E3F3 F3G3 G3H3 H3I3 I3J3 J3J2 J2J3"/>
    </vehicle>
    <vehicle id="t42_1" type="city_vehicles" depart="121.00">
        <route edges="E4E5 E5E6 E6F6 F6G6 G6G7 G7G8 G8G9"/>
    </vehicle>
    <vehicle id="t29_1" type="city_vehicles" depart="122.00">
        <route edges="A9B9 B9C9 C9D9 D9D8 D8D7 D7D6 D6D5 D5D4 D4D3 D3E3 E3F3 F3G3 G3G2"/>
    </vehicle>
    <vehicle id="t133_1" type="city_vehicles" depart="124.00">
        <route edges="B0A0 A0A1 A1A2 A2A3 A3B3 B3C3 C3D3 D3E3 E3F3 F3G3 G3G4 G4H4 H4H3"/>
    </vehicle>
    <vehicle id="t27_0" type="city_vehicles" depart="125.00">
        <route edges="F8G8 G8G7 G7G6 G6H6 H6I6 I6J6 J6J5 J5J6"/>
    </vehicle>
    <vehicle id="t100_1" type="city_vehicles" depart="126.00">
        <route edges="D3D4 D4D5 D5C5 C5C6"/>
    </vehicle>
    <vehicle id="t115_1" type="city_vehicles" depart="126.00">
        <route edges="C3B3 B3C3 C3D3 D3E3 E3F3 F3G3 G3G2 G2G1"/>
    </vehicle>
    <vehicle id="t49_1" type="city_vehicles" depart="127.00">
        <route edges="C6D6 D6D7 D7D8 D8D9 D9E9 E9F9 F9G9 G9H9 H9I9 I9H9"/>
    </vehicle>
    <vehicle id="t26_1" type="city_vehicles" depart="128.00">
        <route edges="F6F7 F7F6 F6E6 E6D6 D6D5 D5D4 D4D3 D3D2 D2D1 D1D0"/>
    </vehicle>
    <vehicle id="t91_2" type="city_vehicles" depart="128.00">
        <route edges="B2C2 C2D2 D2E2"/>
    </vehicle>
    <vehicle id="t95_0" type="city_vehicles" depart="128.00">
        <route edges="I2J2 J2J3 J3I3 I3H3 H3G3 G3F3 F3E3 E3D3 D3C3 C3B3 B3B4 B4B5 B5B4"/>
    </vehicle>
    <vehicle id="t149_2" type="city_vehicles" depart="130.00">
        <route edges="F8F7 F7F6 F6E6 E6E5 E5F5"/>
    </vehicle>
    <vehicle id="t2_0" type="city_vehicles" depart="130.00">
        <route edges="G5G6 G6G5 G5G4 G4G3 G3G2 G2G1 G1G0 G0H0 H0I0"/>
    </vehicle>
    <vehicle id="t84_0" type="city_vehicles" depart="131.00">
        <route edges="G9F9 F9G9 G9G8 G8G7 G7G6 G6H6 H6I6 I6J6 J6J5"/>
    </vehicle>
    <vehicle id="t92_0" type="city_vehicles" depart="132.00">
        <route edges="J1J0 J0J1 J1J2 J2J3 J3I3 I3H3 H3H2"/>
    </vehicle>
    <vehicle id="t118_1" type="city_vehicles" depart="133.00">
        <route edges="J9J8 J8J7 J7J6 J6I6 I6H6 H6G6 G6G5 G5G4 G4G3 G3G2 G2G1 G1G0"/>
    </vehicle>
    <vehicle id="t68_0" type="city_vehicles" depart="134.00">
        <route edges="A6B6 B6C6 C6D6 D6D5 D5D4 D4D3 D3E3 E3F3 F3G3 G3G2 G2G3"/>
    </vehicle>
    <vehicle id="t83_0" type="city_vehicles" depart="134.00">
        <route edges="H6G6 G6F6 F6E6 E6D6 D6C6 C6D6"/>
    </vehicle>
    <vehicle id="t108_0" type="city_vehicles" depart="135.00">
        <route edges="H7G7 G7G6 G6G5 G5G4 G4G3 G3H3 H3I3 I3J3 J3J2"/>
    </vehicle>
    <vehicle id="t72_1" type="city_vehicles" depart="135.00">
        <route edges="B3B2 B2B3 B3B4 B4B5 B5B6 B6C6"/>
    </vehicle>
    <vehicle id="t140_0" type="city_vehicles" depart="136.00">
        <route edges="G9G8 G8G7 G7G6 G6G5 G5G4 G4G3 G3H3 H3I3 I3H3"/>
    </vehicle>
    <vehicle id="t44_1" type="city_vehicles" depart="136.00">
        <route edges="I5J5 J5J4 J4J3 J3J2 J2J3"/>
    </vehicle>
    <vehicle id="t96_1" type="city_vehicles" depart="136.00">
        <route edges="I7H7 H7H6 H6I6 I6I5 I5I4 I4I3"/>
    </vehicle>
    <vehicle id="t84_1" type="city_vehicles" depart="138.00">
        <route edges="G9F9 F9G9 G9G8 G8G7 G7G6 G6H6 H6I6 I6J6 J6J5"/>
    </vehicle>
    <vehicle id="t131_1" type="city_vehicles" depart="139.00">
        <route edges="J3I3 I3H3 H3G3 G3F3 F3E3 E3D3 D3C3 C3B3 B3A3 A3A4 A4A5 A5A6 A6A7 A7A8 A8A9 A9B9"/>
    </vehicle>
    <vehicle id="t0_1" type="city_vehicles" depart="140.00">
        <route edges="H0I0 I0J0 J0J1 J1J2 J2J3 J3J4 J4I4"/>
    </vehicle>
    <vehicle id="t138_0" type="city_vehicles" depart="140.00">
        <route edges="I7J7 J7J6 J6I6 I6H6 H6G6 G6F6 F6F5"/>
    </vehicle>
    <vehicle id="t10_0" type="city_vehicles" depart="142.00">
        <route edges="H9G9 G9F9 F9E9 E9D9 D9D8 D8D7 D7D6 D6C6 C6B6 B6A6 A6A5 A5A4 A4A5"/>
    </vehicle>
    <vehicle id="t14_2" type="city_vehicles" depart="142.00">
        <route edges="D4D5 D5D4 D4D3 D3E3 E3F3 F3G3 G3H3 H3I3 I3J3 J3J2 J2J1 J1I1"/>
    </vehicle>
    <vehicle id="t52_1" type="city_vehicles" depart="142.00">
        <route edges="B8A8 A8B8 B8C8 C8D8 D8D7"/>
    </vehicle>
    <vehicle id="t86_1" type="city_vehicles" depart="143.00">
        <route edges="D7C7 C7C6 C6B6 B6A6 A6A5 A5A4 A4A3 A3A2 A2A1 A1A0 A0B0"/>
    </vehicle>
    <vehicle id="t123_0" type="city_vehicles" depart="145.00">
        <route edges="H9H8 H8G8 G8G7 G7G6 G6G5 G5G4 G4G3 G3F3 F3G3"/>
    </vehicle>
    <vehicle id="t60_1" type="city_vehicles" depart="145.00">
        <route edges="A8A7 A7A8 A8A9 A9A8"/>
    </vehicle>
    <vehicle id="t93_2" type="city_vehicles" depart="147.00">
        <route edges="B7C7 C7D7 D7E7 E7F7 F7E7"/>
    </vehicle>
    <vehicle id="t9_0" type="city_vehicles" depart="147.00">
        <route edges="C1C0 C0D0 D0E0 E0F0 F0G0 G0G1 G1F1"/>
    </vehicle>
    <vehicle id="t142_1" type="city_vehicles" depart="148.00">
        <route edges="F9E9 E9F9 F9F8 F8F7 F7F6 F6F5 F5F4 F4F3 F3F2 F2F1 F1F0"/>
    </vehicle>
    <vehicle id="t10_1" type="city_vehicles" depart="150.00">
        <route edges="H9G9 G9F9 F9E9 E9D9 D9D8 D8D7 D7D6 D6C6 C6B6 B6A6 A6A5 A5A4 A4A5"/>
    </vehicle>
    <vehicle id="t119_0" type="city_vehicles" depart="150.00">
        <route edges="J0I0 I0H0 H0H1 H1H2 H2H3 H3H2"/>
    </vehicle>
    <vehicle id="t142_2" type="city_vehicles" depart="150.00">
        <route edges="F9E9 E9F9 F9F8 F8F7 F7F6 F6F5 F5F4 F4F3 F3F2 F2F1 F1F0"/>
    </vehicle>
    <vehicle id="t11_0" type="city_vehicles" depart="151.00">
        <route edges="G1G2 G2G3 G3G4 G4G5 G5G6 G6G7 G7G8 G8F8 F8F7"/>
    </vehicle>
    <vehicle id="t124_0" type="city_vehicles" depart="151.00">
        <route edges="G0H0 H0G0 G0F0 F0E0 E0D0 D0D1 D1D2 D2D3 D3C3 C3B3 B3B4"/>
    </vehicle>
    <vehicle id="t31_0" type="city_vehicles" depart="151.00">
        <route edges="J2J3 J3I3 I3H3 H3H2"/>
    </vehicle>
    <vehicle id="t92_1" type="city_vehicles" depart="151.00">
        <route edges="J1J0 J0J1 J1J2 J2J3 J3I3 I3H3 H3H2"/>
    </vehicle>
    <vehicle id="t123_1" type="city_vehicles" depart="152.00">
        <route edges="H9H8 H8G8 G8G7 G7G6 G6G5 G5G4 G4G3 G3F3 F3G3"/>
    </vehicle>
    <vehicle id="t125_1" type="city_vehicles" depart="152.00">
        <route edges="G0G1 G1G2 G2H2 H2G2"/>
    </vehicle>
    <vehicle id="t42_2" type="city_vehicles" depart="155.00">
        <route edges="E4E5 E5E6 E6F6 F6G6 G6G7 G7G8 G8G9"/>
    </vehicle>
    <vehicle id="t54_0" type="city_vehicles" depart="156.00">
        <route edges="I4I5 I5H5 H5G5 G5G4 G4G3 G3G2 G2G1 G1G0 G0F0"/>
    </vehicle>
    <vehicle id="t71_1" type="city_vehicles" depart="156.00">
        <route edges="J2J1 J1J2 J2J3 J3I3 I3H3 H3G3 G3G4 G4G5 G5G6 G6G7 G7G8 G8F8 F8F7"/>
    </vehicle>
    <vehicle id="t28_0" type="city_vehicles" depart="158.00">
        <route edges="H7H6 H6I6 I6I5"/>
    </vehicle>
    <vehicle id="t80_0" type="city_vehicles" depart="158.00">
        <route edges="D9D8"/>
    </vehicle>
    <vehicle id="t37_1" type="city_vehicles" depart="161.00">
        <route edges="A6A5 A5A6 A6A7 A7A8 A8B8 B8C8"/>
    </vehicle>
    <vehicle id="t7_1" type="city_vehicles" depart="162.00">
        <route edges="G9H9 H9G9 G9F9 F9E9 E9D9 D9D8 D8D7 D7C7 C7B7"/>
    </vehicle>
    <vehicle id="t13_2" type="city_vehicles" depart="163.00">
        <route edges="C2D2 D2D3 D3E3 E3F3 F3G3 G3G4 G4G5 G5H5 H5I5 I5I4"/>
    </vehicle>