<routes>
  <vtypeDistribution id="city_vehicles">
    <vtype id="p1" accel="0.7" decel="4.5" sigma="0.8" length="5.5" maxspeed="70" color="0,0,1" probability="0.125" />
    <vtype id="p2" accel="0.7" decel="4.5" sigma="0.4" length="5.5" maxspeed="70" color="0,0,1" probability="0.125" />
    <vtype id="p3" accel="1.4" decel="7.5" sigma="0.7" length="5.5" maxspeed="90" color="1,0,1" probability="0.1" />
    <vtype id="p4" accel="1.4" decel="7.5" sigma="0.3" length="5.5" maxspeed="90" color="1,0,1" probability="0.1" />
    <vtype id="p5" accel="0.9" decel="5.5" sigma="0.8" length="7" maxspeed="90" color="1,0,0" probability="0.125" />
    <vtype id="p6" accel="0.9" decel="5.5" sigma="0.4" length="7" maxspeed="90" color="1,0,0" probability="0.125" />
    <vtype id="p7" accel="0.7" decel="4.5" sigma="0.8" length="7" maxspeed="70" color="1,0,0" probability="0.1" />
    <vtype id="p8" accel="0.7" decel="4.5" sigma="0.4" length="7" maxspeed="70" color="1,0,0" probability="0.1" />
    <vtype id="t1" accel="0.6" decel="4" sigma="0.5" length="16" maxspeed="50" color="0,1,0" probability="0.1" />
  </vtypeDistribution>
</routes>