<?xml version="1.0"?>

<!-- generated on 03/24/11 10:31:55 by SUMO duarouter Version 0.12.2
<?xml version="1.0" encoding="iso-8859-1"?>

<configuration xmlns:xsi="http://www.w3.org/2001/XMLSchema-instance" xsi:noNamespaceSchemaLocation="http://sumo.sf.net/xsd/duarouterConfiguration.xsd">

    <input>
        <net-file value="small.net.xml"/>
        <trip-defs value="trips.trips.xml"/>
    </input>

    <output>
        <output-file value="small.rou.xml"/>
    </output>

</configuration>
-->

<routes>
  <vtypeDistribution id="city_vehicles">
    <vtype id="p1" accel="0.7" decel="4.5" sigma="0.8" length="5.5" maxspeed="70" color="0,0,1" probability="0.125" />
    <vtype id="p2" accel="0.7" decel="4.5" sigma="0.4" length="5.5" maxspeed="70" color="0,0,1" probability="0.125" />
    <vtype id="p3" accel="1.4" decel="7.5" sigma="0.7" length="5.5" maxspeed="90" color="1,0,1" probability="0.1" />
    <vtype id="p4" accel="1.4" decel="7.5" sigma="0.3" length="5.5" maxspeed="90" color="1,0,1" probability="0.1" />
    <vtype id="p5" accel="0.9" decel="5.5" sigma="0.8" length="7" maxspeed="90" color="1,0,0" probability="0.125" />
    <vtype id="p6" accel="0.9" decel="5.5" sigma="0.4" length="7" maxspeed="90" color="1,0,0" probability="0.125" />
    <vtype id="p7" accel="0.7" decel="4.5" sigma="0.8" length="7" maxspeed="70" color="1,0,0" probability="0.1" />
    <vtype id="p8" accel="0.7" decel="4.5" sigma="0.4" length="7" maxspeed="70" color="1,0,0" probability="0.1" />
    <vtype id="t1" accel="0.6" decel="4" sigma="0.5" length="16" maxspeed="50" color="0,1,0" probability="0.1" />
  </vtypeDistribution>
    <vehicle id="t0" depart="0.00" type="city_vehicles">
        <route edges="C1C2 C2B2 B2A2 A2A1 A1A0 A0B0"/>
    </vehicle>
    <vehicle id="t1" depart="2.00" type="city_vehicles">
        <route edges="C1C2 C2B2 B2A2 A2A1 A1A0 A0B0"/>
    </vehicle>
    <vehicle id="t2" depart="4.00" type="city_vehicles">
        <route edges="C0B0 B0A0 A0B0"/>
    </vehicle>
    <vehicle id="t3" depart="6.00" type="city_vehicles">
        <route edges="A1A2 A2B2 B2A2"/>
    </vehicle>
    <vehicle id="t4" depart="8.00" type="city_vehicles">
        <route edges="A1A0 A0B0 B0A0"/>
    </vehicle>
    <vehicle id="t5" depart="10.00" type="city_vehicles">
        <route edges="B2C2 C2B2 B2B1 B1C1"/>
    </vehicle>
    <vehicle id="t6" depart="12.00" type="city_vehicles">
        <route edges="A1A0 A0A1 A1B1 B1A1"/>
    </vehicle>
    <vehicle id="t7" depart="14.00" type="city_vehicles">
        <route edges="B2C2 C2B2 B2A2 A2A1 A1A0"/>
    </vehicle>
    <vehicle id="t8" depart="16.00" type="city_vehicles">
        <route edges="C0C1 C1C2 C2B2 B2B1"/>
    </vehicle>
    <vehicle id="t9" depart="18.00" type="city_vehicles">
        <route edges="A1A0 A0B0 B0C0"/>
    </vehicle>
    <vehicle id="t10" depart="20.00" type="city_vehicles">
        <route edges="C2B2 B2C2 C2C1 C1C2"/>
    </vehicle>
    <vehicle id="t11" depart="22.00" type="city_vehicles">
        <route edges="A2A1 A1B1"/>
    </vehicle>
    <vehicle id="t12" depart="24.00" type="city_vehicles">
        <route edges="B1B0 B0B1 B1B2 B2A2"/>
    </vehicle>
    <vehicle id="t13" depart="26.00" type="city_vehicles">
        <route edges="C2C1 C1C2"/>
    </vehicle>
    <vehicle id="t14" depart="28.00" type="city_vehicles">
        <route edges="B0C0 C0C1"/>
    </vehicle>
    <vehicle id="t15" depart="30.00" type="city_vehicles">
        <route edges="C2B2 B2C2 C2C1 C1C0 C0C1"/>
    </vehicle>
    <vehicle id="t16" depart="32.00" type="city_vehicles">
        <route edges="B2C2 C2B2 B2A2 A2B2"/>
    </vehicle>
    <vehicle id="t17" depart="34.00" type="city_vehicles">
        <route edges="A1A2 A2A1 A1A0 A0B0 B0C0 C0C1"/>
    </vehicle>
    <vehicle id="t18" depart="36.00" type="city_vehicles">
        <route edges="A0B0 B0A0 A0A1 A1A0"/>
    </vehicle>
    <vehicle id="t19" depart="38.00" type="city_vehicles">
        <route edges="C1C0 C0C1 C1C2 C2C1"/>
    </vehicle>
    <vehicle id="t20" depart="40.00" type="city_vehicles">
        <route edges="B2A2 A2A1 A1A0"/>
    </vehicle>
    <vehicle id="t21" depart="42.00" type="city_vehicles">
        <route edges="B2B1 B1A1 A1A0 A0A1"/>
    </vehicle>
    <vehicle id="t22" depart="44.00" type="city_vehicles">
        <route edges="B0A0 A0A1 A1A2 A2B2 B2C2 C2B2"/>
    </vehicle>
    <vehicle id="t23" depart="46.00" type="city_vehicles">
        <route edges="B2A2 A2B2"/>
    </vehicle>
    <vehicle id="t24" depart="48.00" type="city_vehicles">
        <route edges="C0B0 B0A0 A0A1 A1A0"/>
    </vehicle>
    <vehicle id="t25" depart="50.00" type="city_vehicles">
        <route edges="A0A1 A1A2"/>
    </vehicle>
    <vehicle id="t26" depart="52.00" type="city_vehicles">
        <route edges="B2B1 B1A1 A1A0 A0B0"/>
    </vehicle>
    <vehicle id="t27" depart="54.00" type="city_vehicles">
        <route edges="A1B1 B1B2 B2C2 C2B2"/>
    </vehicle>
    <vehicle id="t28" depart="56.00" type="city_vehicles">
        <route edges="B1C1 C1C2 C2B2 B2A2"/>
    </vehicle>
    <vehicle id="t29" depart="58.00" type="city_vehicles">
        <route edges="A0B0 B0C0 C0C1"/>
    </vehicle>
    <vehicle id="t30" depart="60.00" type="city_vehicles">
        <route edges="A2A1 A1B1"/>
    </vehicle>
    <vehicle id="t31" depart="62.00" type="city_vehicles">
        <route edges="C1C2 C2B2 B2B1 B1C1"/>
    </vehicle>
    <vehicle id="t32" depart="64.00" type="city_vehicles">
        <route edges="A2B2 B2A2"/>
    </vehicle>
    <vehicle id="t33" depart="66.00" type="city_vehicles">
        <route edges="B2B1 B1B0 B0C0 C0C1"/>
    </vehicle>
    <vehicle id="t34" depart="68.00" type="city_vehicles">
        <route edges="C1C0 C0C1 C1C2 C2B2"/>
    </vehicle>
    <vehicle id="t35" depart="70.00" type="city_vehicles">
        <route edges="A1A0 A0B0 B0C0 C0B0"/>
    </vehicle>
    <vehicle id="t36" depart="72.00" type="city_vehicles">
        <route edges="C2B2 B2A2"/>
    </vehicle>
    <vehicle id="t37" depart="74.00" type="city_vehicles">
        <route edges="C2C1 C1C0 C0B0"/>
    </vehicle>
    <vehicle id="t38" depart="76.00" type="city_vehicles">
        <route edges="C0B0 B0C0 C0C1"/>
    </vehicle>
    <vehicle id="t39" depart="78.00" type="city_vehicles">
        <route edges="B0A0 A0A1 A1A2 A2B2"/>
    </vehicle>
</routes>
