<?xml version="1.0"?>

<!-- generated on 03/20/11 15:57:44 by SUMO netconvert Version 0.12.2
<?xml version="1.0" encoding="iso-8859-1"?>

<configuration xmlns:xsi="http://www.w3.org/2001/XMLSchema-instance" xsi:noNamespaceSchemaLocation="http://sumo.sf.net/xsd/netconvertConfiguration.xsd">

    <input>
        <xml-node-files value="small.nod.xml"/>
        <xml-edge-files value="small.edg.xml"/>
        <xml-type-files value="default.typ.xml"/>
    </input>

    <output>
        <output-file value="small.net.xml"/>
    </output>

    <report>
        <verbose value="true"/>
    </report>

</configuration>
-->

<net>

   <location netOffset="0.00,0.00" convBoundary="0.00,0.00,300.00,300.00" origBoundary="0.00,0.00,300.00,300.00" projParameter="!"/>

   <edge id=":A0_0" function="internal">
      <lanes>
         <lane id=":A0_0_0" depart="0" maxspeed="13.90" length="18.55" shape="-4.95,6.55 -4.23,1.52 -2.08,-2.07 1.52,-4.23 6.55,-4.95"/>
      </lanes>
   </edge>
   <edge id=":A0_1" function="internal">
      <lanes>
         <lane id=":A0_1_0" depart="0" maxspeed="13.90" length="13.22" shape="-1.65,6.55 -1.14,2.96 0.40,0.40 2.96,-1.14 6.55,-1.65"/>
      </lanes>
   </edge>
   <edge id=":A0_2" function="internal">
      <lanes>
         <lane id=":A0_2_0" depart="0" maxspeed="13.90" length="0.10" shape="-1.65,6.55 -0.88,5.40"/>
      </lanes>
   </edge>
   <edge id=":A0_6" function="internal">
      <lanes>
         <lane id=":A0_6_0" depart="0" maxspeed="13.90" length="4.72" shape="-0.88,5.40 -0.83,5.31 -0.00,4.90 0.82,5.31 1.65,6.55"/>
      </lanes>
   </edge>
   <edge id=":A0_3" function="internal">
      <lanes>
         <lane id=":A0_3_0" depart="0" maxspeed="13.90" length="2.58" shape="6.55,4.95 5.85,5.05 5.35,5.35 5.05,5.85 4.95,6.55"/>
      </lanes>
   </edge>
   <edge id=":A0_4" function="internal">
      <lanes>
         <lane id=":A0_4_0" depart="0" maxspeed="13.90" length="7.90" shape="6.55,1.65 4.41,1.96 2.88,2.87 1.96,4.41 1.65,6.55"/>
      </lanes>
   </edge>
   <edge id=":A0_5" function="internal">
      <lanes>
         <lane id=":A0_5_0" depart="0" maxspeed="13.90" length="0.10" shape="6.55,1.65 5.40,0.88"/>
      </lanes>
   </edge>
   <edge id=":A0_7" function="internal">
      <lanes>
         <lane id=":A0_7_0" depart="0" maxspeed="13.90" length="4.72" shape="5.40,0.88 5.31,0.82 4.90,-0.00 5.31,-0.83 6.55,-1.65"/>
      </lanes>
   </edge>
   <edge id=":A1_0" function="internal">
      <lanes>
         <lane id=":A1_0_0" depart="0" maxspeed="13.90" length="9.50" shape="-4.95,154.75 -4.95,145.25"/>
      </lanes>
   </edge>
   <edge id=":A1_1" function="internal">
      <lanes>
         <lane id=":A1_1_0" depart="0" maxspeed="13.90" length="9.50" shape="-1.65,154.75 -1.65,145.25"/>
      </lanes>
   </edge>
   <edge id=":A1_2" function="internal">
      <lanes>
         <lane id=":A1_2_0" depart="0" maxspeed="12.50" length="6.51" shape="-1.65,154.75 -1.04,151.95 2.93,149.10"/>
      </lanes>
   </edge>
   <edge id=":A1_11" function="internal">
      <lanes>
         <lane id=":A1_11_0" depart="0" maxspeed="12.50" length="6.58" shape="2.93,149.10 3.81,148.75 8.05,148.35"/>
      </lanes>
   </edge>
   <edge id=":A1_3" function="internal">
      <lanes>
         <lane id=":A1_3_0" depart="0" maxspeed="13.90" length="0.10" shape="-1.65,154.75 -0.88,153.60"/>
      </lanes>
   </edge>
   <edge id=":A1_12" function="internal">
      <lanes>
         <lane id=":A1_12_0" depart="0" maxspeed="13.90" length="4.72" shape="-0.88,153.60 -0.83,153.51 -0.00,153.10 0.82,153.51 1.65,154.75"/>
      </lanes>
   </edge>
   <edge id=":A1_4" function="internal">
      <lanes>
         <lane id=":A1_4_0" depart="0" maxspeed="12.50" length="5.00" shape="8.05,151.65 6.69,151.84 5.73,152.43 5.14,153.39 4.95,154.75"/>
      </lanes>
   </edge>
   <edge id=":A1_5" function="internal">
      <lanes>
         <lane id=":A1_5_0" depart="0" maxspeed="12.50" length="3.11" shape="8.05,151.65 6.91,151.54"/>
      </lanes>
   </edge>
   <edge id=":A1_13" function="internal">
      <lanes>
         <lane id=":A1_13_0" depart="0" maxspeed="12.50" length="9.98" shape="6.91,151.54 3.81,151.25 0.77,150.05 -1.04,148.05 -1.65,145.25"/>
      </lanes>
   </edge>
   <edge id=":A1_6" function="internal">
      <lanes>
         <lane id=":A1_6_0" depart="0" maxspeed="11.10" length="0.10" shape="8.05,151.65 6.90,150.88"/>
      </lanes>
   </edge>
   <edge id=":A1_14" function="internal">
      <lanes>
         <lane id=":A1_14_0" depart="0" maxspeed="11.10" length="4.72" shape="6.90,150.88 6.81,150.83 6.40,150.00 6.81,149.18 8.05,148.35"/>
      </lanes>
   </edge>
   <edge id=":A1_7" function="internal">
      <lanes>
         <lane id=":A1_7_0" depart="0" maxspeed="12.50" length="5.00" shape="4.95,145.25 5.14,146.61 5.73,147.57 6.69,148.16 8.05,148.35"/>
      </lanes>
   </edge>
   <edge id=":A1_8" function="internal">
      <lanes>
         <lane id=":A1_8_0" depart="0" maxspeed="13.90" length="9.50" shape="4.95,145.25 4.95,154.75"/>
      </lanes>
   </edge>
   <edge id=":A1_9" function="internal">
      <lanes>
         <lane id=":A1_9_0" depart="0" maxspeed="13.90" length="9.50" shape="1.65,145.25 1.65,154.75"/>
      </lanes>
   </edge>
   <edge id=":A1_10" function="internal">
      <lanes>
         <lane id=":A1_10_0" depart="0" maxspeed="13.90" length="0.10" shape="1.65,145.25 0.88,146.40"/>
      </lanes>
   </edge>
   <edge id=":A1_15" function="internal">
      <lanes>
         <lane id=":A1_15_0" depart="0" maxspeed="13.90" length="4.72" shape="0.88,146.40 0.83,146.49 0.00,146.90 -0.82,146.49 -1.65,145.25"/>
      </lanes>
   </edge>
   <edge id=":A2_0" function="internal">
      <lanes>
         <lane id=":A2_0_0" depart="0" maxspeed="13.90" length="18.55" shape="6.55,304.95 1.52,304.23 -2.08,302.07 -4.23,298.48 -4.95,293.45"/>
      </lanes>
   </edge>
   <edge id=":A2_1" function="internal">
      <lanes>
         <lane id=":A2_1_0" depart="0" maxspeed="13.90" length="13.22" shape="6.55,301.65 2.96,301.14 0.40,299.60 -1.14,297.04 -1.65,293.45"/>
      </lanes>
   </edge>
   <edge id=":A2_2" function="internal">
      <lanes>
         <lane id=":A2_2_0" depart="0" maxspeed="13.90" length="0.10" shape="6.55,301.65 5.40,300.88"/>
      </lanes>
   </edge>
   <edge id=":A2_6" function="internal">
      <lanes>
         <lane id=":A2_6_0" depart="0" maxspeed="13.90" length="4.72" shape="5.40,300.88 5.31,300.83 4.90,300.00 5.31,299.18 6.55,298.35"/>
      </lanes>
   </edge>
   <edge id=":A2_3" function="internal">
      <lanes>
         <lane id=":A2_3_0" depart="0" maxspeed="13.90" length="2.58" shape="4.95,293.45 5.05,294.15 5.35,294.65 5.85,294.95 6.55,295.05"/>
      </lanes>
   </edge>
   <edge id=":A2_4" function="internal">
      <lanes>
         <lane id=":A2_4_0" depart="0" maxspeed="13.90" length="7.90" shape="1.65,293.45 1.96,295.59 2.88,297.13 4.41,298.04 6.55,298.35"/>
      </lanes>
   </edge>
   <edge id=":A2_5" function="internal">
      <lanes>
         <lane id=":A2_5_0" depart="0" maxspeed="13.90" length="0.10" shape="1.65,293.45 0.88,294.60"/>
      </lanes>
   </edge>
   <edge id=":A2_7" function="internal">
      <lanes>
         <lane id=":A2_7_0" depart="0" maxspeed="13.90" length="4.72" shape="0.88,294.60 0.83,294.69 0.00,295.10 -0.82,294.69 -1.65,293.45"/>
      </lanes>
   </edge>
   <edge id=":B0_0" function="internal">
      <lanes>
         <lane id=":B0_0_0" depart="0" maxspeed="12.50" length="5.00" shape="148.35,8.05 148.16,6.69 147.57,5.73 146.61,5.14 145.25,4.95"/>
      </lanes>
   </edge>
   <edge id=":B0_1" function="internal">
      <lanes>
         <lane id=":B0_1_0" depart="0" maxspeed="12.50" length="3.11" shape="148.35,8.05 148.46,6.91"/>
      </lanes>
   </edge>
   <edge id=":B0_11" function="internal">
      <lanes>
         <lane id=":B0_11_0" depart="0" maxspeed="12.50" length="9.98" shape="148.46,6.91 148.75,3.81 149.95,0.78 151.95,-1.04 154.75,-1.65"/>
      </lanes>
   </edge>
   <edge id=":B0_2" function="internal">
      <lanes>
         <lane id=":B0_2_0" depart="0" maxspeed="11.10" length="0.10" shape="148.35,8.05 149.12,6.90"/>
      </lanes>
   </edge>
   <edge id=":B0_12" function="internal">
      <lanes>
         <lane id=":B0_12_0" depart="0" maxspeed="11.10" length="4.72" shape="149.12,6.90 149.17,6.81 150.00,6.40 150.82,6.81 151.65,8.05"/>
      </lanes>
   </edge>
   <edge id=":B0_3" function="internal">
      <lanes>
         <lane id=":B0_3_0" depart="0" maxspeed="12.50" length="5.00" shape="154.75,4.95 153.39,5.14 152.43,5.72 151.84,6.69 151.65,8.05"/>
      </lanes>
   </edge>
   <edge id=":B0_4" function="internal">
      <lanes>
         <lane id=":B0_4_0" depart="0" maxspeed="13.90" length="9.50" shape="154.75,4.95 145.25,4.95"/>
      </lanes>
   </edge>
   <edge id=":B0_5" function="internal">
      <lanes>
         <lane id=":B0_5_0" depart="0" maxspeed="13.90" length="9.50" shape="154.75,1.65 145.25,1.65"/>
      </lanes>
   </edge>
   <edge id=":B0_6" function="internal">
      <lanes>
         <lane id=":B0_6_0" depart="0" maxspeed="13.90" length="0.10" shape="154.75,1.65 153.60,0.88"/>
      </lanes>
   </edge>
   <edge id=":B0_13" function="internal">
      <lanes>
         <lane id=":B0_13_0" depart="0" maxspeed="13.90" length="4.72" shape="153.60,0.88 153.51,0.83 153.10,0.00 153.51,-0.82 154.75,-1.65"/>
      </lanes>
   </edge>
   <edge id=":B0_7" function="internal">
      <lanes>
         <lane id=":B0_7_0" depart="0" maxspeed="13.90" length="9.50" shape="145.25,-4.95 154.75,-4.95"/>
      </lanes>
   </edge>
   <edge id=":B0_8" function="internal">
      <lanes>
         <lane id=":B0_8_0" depart="0" maxspeed="13.90" length="9.50" shape="145.25,-1.65 154.75,-1.65"/>
      </lanes>
   </edge>
   <edge id=":B0_9" function="internal">
      <lanes>
         <lane id=":B0_9_0" depart="0" maxspeed="12.50" length="6.51" shape="145.25,-1.65 148.05,-1.04 150.90,2.93"/>
      </lanes>
   </edge>
   <edge id=":B0_14" function="internal">
      <lanes>
         <lane id=":B0_14_0" depart="0" maxspeed="12.50" length="6.58" shape="150.90,2.93 151.25,3.81 151.65,8.05"/>
      </lanes>
   </edge>
   <edge id=":B0_10" function="internal">
      <lanes>
         <lane id=":B0_10_0" depart="0" maxspeed="13.90" length="0.10" shape="145.25,-1.65 146.40,-0.88"/>
      </lanes>
   </edge>
   <edge id=":B0_15" function="internal">
      <lanes>
         <lane id=":B0_15_0" depart="0" maxspeed="13.90" length="4.72" shape="146.40,-0.88 146.49,-0.83 146.90,-0.00 146.49,0.82 145.25,1.65"/>
      </lanes>
   </edge>
   <edge id=":B1_0" function="internal">
      <lanes>
         <lane id=":B1_0_0" depart="0" maxspeed="11.10" length="5.00" shape="148.35,154.75 148.16,153.39 147.57,152.43 146.61,151.84 145.25,151.65"/>
      </lanes>
   </edge>
   <edge id=":B1_1" function="internal">
      <lanes>
         <lane id=":B1_1_0" depart="0" maxspeed="11.10" length="9.50" shape="148.35,154.75 148.35,145.25"/>
      </lanes>
   </edge>
   <edge id=":B1_2" function="internal">
      <lanes>
         <lane id=":B1_2_0" depart="0" maxspeed="11.10" length="10.32" shape="148.35,154.75 148.75,151.95 149.95,149.95 151.95,148.75 154.75,148.35"/>
      </lanes>
   </edge>
   <edge id=":B1_3" function="internal">
      <lanes>
         <lane id=":B1_3_0" depart="0" maxspeed="11.10" length="4.82" shape="148.35,154.75 149.17,153.51 150.00,153.10 150.82,153.51 151.65,154.75"/>
      </lanes>
   </edge>
   <edge id=":B1_4" function="internal">
      <lanes>
         <lane id=":B1_4_0" depart="0" maxspeed="11.10" length="5.00" shape="154.75,151.65 153.39,151.84 152.43,152.43 151.84,153.39 151.65,154.75"/>
      </lanes>
   </edge>
   <edge id=":B1_5" function="internal">
      <lanes>
         <lane id=":B1_5_0" depart="0" maxspeed="11.10" length="9.50" shape="154.75,151.65 145.25,151.65"/>
      </lanes>
   </edge>
   <edge id=":B1_6" function="internal">
      <lanes>
         <lane id=":B1_6_0" depart="0" maxspeed="11.10" length="10.32" shape="154.75,151.65 151.95,151.25 149.95,150.05 148.75,148.05 148.35,145.25"/>
      </lanes>
   </edge>
   <edge id=":B1_7" function="internal">
      <lanes>
         <lane id=":B1_7_0" depart="0" maxspeed="11.10" length="4.82" shape="154.75,151.65 153.51,150.83 153.10,150.00 153.51,149.18 154.75,148.35"/>
      </lanes>
   </edge>
   <edge id=":B1_8" function="internal">
      <lanes>
         <lane id=":B1_8_0" depart="0" maxspeed="11.10" length="5.00" shape="151.65,145.25 151.84,146.61 152.43,147.57 153.39,148.16 154.75,148.35"/>
      </lanes>
   </edge>
   <edge id=":B1_9" function="internal">
      <lanes>
         <lane id=":B1_9_0" depart="0" maxspeed="11.10" length="9.50" shape="151.65,145.25 151.65,154.75"/>
      </lanes>
   </edge>
   <edge id=":B1_10" function="internal">
      <lanes>
         <lane id=":B1_10_0" depart="0" maxspeed="11.10" length="10.32" shape="151.65,145.25 151.25,148.05 150.05,150.05 148.05,151.25 145.25,151.65"/>
      </lanes>
   </edge>
   <edge id=":B1_11" function="internal">
      <lanes>
         <lane id=":B1_11_0" depart="0" maxspeed="11.10" length="4.82" shape="151.65,145.25 150.83,146.49 150.00,146.90 149.18,146.49 148.35,145.25"/>
      </lanes>
   </edge>
   <edge id=":B1_12" function="internal">
      <lanes>
         <lane id=":B1_12_0" depart="0" maxspeed="11.10" length="5.00" shape="145.25,148.35 146.61,148.16 147.57,147.57 148.16,146.61 148.35,145.25"/>
      </lanes>
   </edge>
   <edge id=":B1_13" function="internal">
      <lanes>
         <lane id=":B1_13_0" depart="0" maxspeed="11.10" length="9.50" shape="145.25,148.35 154.75,148.35"/>
      </lanes>
   </edge>
   <edge id=":B1_14" function="internal">
      <lanes>
         <lane id=":B1_14_0" depart="0" maxspeed="11.10" length="10.32" shape="145.25,148.35 148.05,148.75 150.05,149.95 151.25,151.95 151.65,154.75"/>
      </lanes>
   </edge>
   <edge id=":B1_15" function="internal">
      <lanes>
         <lane id=":B1_15_0" depart="0" maxspeed="11.10" length="4.82" shape="145.25,148.35 146.49,149.17 146.90,150.00 146.49,150.82 145.25,151.65"/>
      </lanes>
   </edge>
   <edge id=":B2_0" function="internal">
      <lanes>
         <lane id=":B2_0_0" depart="0" maxspeed="13.90" length="9.50" shape="154.75,304.95 145.25,304.95"/>
      </lanes>
   </edge>
   <edge id=":B2_1" function="internal">
      <lanes>
         <lane id=":B2_1_0" depart="0" maxspeed="13.90" length="9.50" shape="154.75,301.65 145.25,301.65"/>
      </lanes>
   </edge>
   <edge id=":B2_2" function="internal">
      <lanes>
         <lane id=":B2_2_0" depart="0" maxspeed="12.50" length="6.51" shape="154.75,301.65 151.95,301.04 149.10,297.07"/>
      </lanes>
   </edge>
   <edge id=":B2_11" function="internal">
      <lanes>
         <lane id=":B2_11_0" depart="0" maxspeed="12.50" length="6.58" shape="149.10,297.07 148.75,296.19 148.35,291.95"/>
      </lanes>
   </edge>
   <edge id=":B2_3" function="internal">
      <lanes>
         <lane id=":B2_3_0" depart="0" maxspeed="13.90" length="0.10" shape="154.75,301.65 153.60,300.88"/>
      </lanes>
   </edge>
   <edge id=":B2_12" function="internal">
      <lanes>
         <lane id=":B2_12_0" depart="0" maxspeed="13.90" length="4.72" shape="153.60,300.88 153.51,300.83 153.10,300.00 153.51,299.18 154.75,298.35"/>
      </lanes>
   </edge>
   <edge id=":B2_4" function="internal">
      <lanes>
         <lane id=":B2_4_0" depart="0" maxspeed="12.50" length="5.00" shape="151.65,291.95 151.84,293.31 152.43,294.27 153.39,294.86 154.75,295.05"/>
      </lanes>
   </edge>
   <edge id=":B2_5" function="internal">
      <lanes>
         <lane id=":B2_5_0" depart="0" maxspeed="12.50" length="3.11" shape="151.65,291.95 151.54,293.09"/>
      </lanes>
   </edge>
   <edge id=":B2_13" function="internal">
      <lanes>
         <lane id=":B2_13_0" depart="0" maxspeed="12.50" length="9.98" shape="151.54,293.09 151.25,296.19 150.05,299.23 148.05,301.04 145.25,301.65"/>
      </lanes>
   </edge>
   <edge id=":B2_6" function="internal">
      <lanes>
         <lane id=":B2_6_0" depart="0" maxspeed="11.10" length="0.10" shape="151.65,291.95 150.88,293.10"/>
      </lanes>
   </edge>
   <edge id=":B2_14" function="internal">
      <lanes>
         <lane id=":B2_14_0" depart="0" maxspeed="11.10" length="4.72" shape="150.88,293.10 150.83,293.19 150.00,293.60 149.18,293.19 148.35,291.95"/>
      </lanes>
   </edge>
   <edge id=":B2_7" function="internal">
      <lanes>
         <lane id=":B2_7_0" depart="0" maxspeed="12.50" length="5.00" shape="145.25,295.05 146.61,294.86 147.57,294.28 148.16,293.31 148.35,291.95"/>
      </lanes>
   </edge>
   <edge id=":B2_8" function="internal">
      <lanes>
         <lane id=":B2_8_0" depart="0" maxspeed="13.90" length="9.50" shape="145.25,295.05 154.75,295.05"/>
      </lanes>
   </edge>
   <edge id=":B2_9" function="internal">
      <lanes>
         <lane id=":B2_9_0" depart="0" maxspeed="13.90" length="9.50" shape="145.25,298.35 154.75,298.35"/>
      </lanes>
   </edge>
   <edge id=":B2_10" function="internal">
      <lanes>
         <lane id=":B2_10_0" depart="0" maxspeed="13.90" length="0.10" shape="145.25,298.35 146.40,299.12"/>
      </lanes>
   </edge>
   <edge id=":B2_15" function="internal">
      <lanes>
         <lane id=":B2_15_0" depart="0" maxspeed="13.90" length="4.72" shape="146.40,299.12 146.49,299.17 146.90,300.00 146.49,300.82 145.25,301.65"/>
      </lanes>
   </edge>
   <edge id=":C0_0" function="internal">
      <lanes>
         <lane id=":C0_0_0" depart="0" maxspeed="13.90" length="2.58" shape="295.05,6.55 294.95,5.85 294.65,5.35 294.15,5.05 293.45,4.95"/>
      </lanes>
   </edge>
   <edge id=":C0_1" function="internal">
      <lanes>
         <lane id=":C0_1_0" depart="0" maxspeed="13.90" length="7.90" shape="298.35,6.55 298.04,4.41 297.12,2.88 295.59,1.96 293.45,1.65"/>
      </lanes>
   </edge>
   <edge id=":C0_2" function="internal">
      <lanes>
         <lane id=":C0_2_0" depart="0" maxspeed="13.90" length="0.10" shape="298.35,6.55 299.12,5.40"/>
      </lanes>
   </edge>
   <edge id=":C0_6" function="internal">
      <lanes>
         <lane id=":C0_6_0" depart="0" maxspeed="13.90" length="4.72" shape="299.12,5.40 299.17,5.31 300.00,4.90 300.82,5.31 301.65,6.55"/>
      </lanes>
   </edge>
   <edge id=":C0_3" function="internal">
      <lanes>
         <lane id=":C0_3_0" depart="0" maxspeed="13.90" length="18.55" shape="293.45,-4.95 298.48,-4.23 302.08,-2.08 304.23,1.52 304.95,6.55"/>
      </lanes>
   </edge>
   <edge id=":C0_4" function="internal">
      <lanes>
         <lane id=":C0_4_0" depart="0" maxspeed="13.90" length="13.22" shape="293.45,-1.65 297.04,-1.14 299.60,0.40 301.14,2.96 301.65,6.55"/>
      </lanes>
   </edge>
   <edge id=":C0_5" function="internal">
      <lanes>
         <lane id=":C0_5_0" depart="0" maxspeed="13.90" length="0.10" shape="293.45,-1.65 294.60,-0.88"/>
      </lanes>
   </edge>
   <edge id=":C0_7" function="internal">
      <lanes>
         <lane id=":C0_7_0" depart="0" maxspeed="13.90" length="4.72" shape="294.60,-0.88 294.69,-0.83 295.10,-0.00 294.69,0.82 293.45,1.65"/>
      </lanes>
   </edge>
   <edge id=":C1_0" function="internal">
      <lanes>
         <lane id=":C1_0_0" depart="0" maxspeed="12.50" length="5.00" shape="295.05,154.75 294.86,153.39 294.27,152.43 293.31,151.84 291.95,151.65"/>
      </lanes>
   </edge>
   <edge id=":C1_1" function="internal">
      <lanes>
         <lane id=":C1_1_0" depart="0" maxspeed="13.90" length="9.50" shape="295.05,154.75 295.05,145.25"/>
      </lanes>
   </edge>
   <edge id=":C1_2" function="internal">
      <lanes>
         <lane id=":C1_2_0" depart="0" maxspeed="13.90" length="9.50" shape="298.35,154.75 298.35,145.25"/>
      </lanes>
   </edge>
   <edge id=":C1_3" function="internal">
      <lanes>
         <lane id=":C1_3_0" depart="0" maxspeed="13.90" length="0.10" shape="298.35,154.75 299.12,153.60"/>
      </lanes>
   </edge>
   <edge id=":C1_11" function="internal">
      <lanes>
         <lane id=":C1_11_0" depart="0" maxspeed="13.90" length="4.72" shape="299.12,153.60 299.17,153.51 300.00,153.10 300.82,153.51 301.65,154.75"/>
      </lanes>
   </edge>
   <edge id=":C1_4" function="internal">
      <lanes>
         <lane id=":C1_4_0" depart="0" maxspeed="13.90" length="9.50" shape="304.95,145.25 304.95,154.75"/>
      </lanes>
   </edge>
   <edge id=":C1_5" function="internal">
      <lanes>
         <lane id=":C1_5_0" depart="0" maxspeed="13.90" length="9.50" shape="301.65,145.25 301.65,154.75"/>
      </lanes>
   </edge>
   <edge id=":C1_6" function="internal">
      <lanes>
         <lane id=":C1_6_0" depart="0" maxspeed="12.50" length="6.51" shape="301.65,145.25 301.04,148.05 297.07,150.90"/>
      </lanes>
   </edge>
   <edge id=":C1_12" function="internal">
      <lanes>
         <lane id=":C1_12_0" depart="0" maxspeed="12.50" length="6.58" shape="297.07,150.90 296.19,151.25 291.95,151.65"/>
      </lanes>
   </edge>
   <edge id=":C1_7" function="internal">
      <lanes>
         <lane id=":C1_7_0" depart="0" maxspeed="13.90" length="0.10" shape="301.65,145.25 300.88,146.40"/>
      </lanes>
   </edge>
   <edge id=":C1_13" function="internal">
      <lanes>
         <lane id=":C1_13_0" depart="0" maxspeed="13.90" length="4.72" shape="300.88,146.40 300.83,146.49 300.00,146.90 299.18,146.49 298.35,145.25"/>
      </lanes>
   </edge>
   <edge id=":C1_8" function="internal">
      <lanes>
         <lane id=":C1_8_0" depart="0" maxspeed="12.50" length="5.00" shape="291.95,148.35 293.31,148.16 294.27,147.57 294.86,146.61 295.05,145.25"/>
      </lanes>
   </edge>
   <edge id=":C1_9" function="internal">
      <lanes>
         <lane id=":C1_9_0" depart="0" maxspeed="12.50" length="3.11" shape="291.95,148.35 293.09,148.46"/>
      </lanes>
   </edge>
   <edge id=":C1_14" function="internal">
      <lanes>
         <lane id=":C1_14_0" depart="0" maxspeed="12.50" length="9.98" shape="293.09,148.46 296.19,148.75 299.23,149.95 301.04,151.95 301.65,154.75"/>
      </lanes>
   </edge>
   <edge id=":C1_10" function="internal">
      <lanes>
         <lane id=":C1_10_0" depart="0" maxspeed="11.10" length="0.10" shape="291.95,148.35 293.10,149.12"/>
      </lanes>
   </edge>
   <edge id=":C1_15" function="internal">
      <lanes>
         <lane id=":C1_15_0" depart="0" maxspeed="11.10" length="4.72" shape="293.10,149.12 293.19,149.17 293.60,150.00 293.19,150.82 291.95,151.65"/>
      </lanes>
   </edge>
   <edge id=":C2_0" function="internal">
      <lanes>
         <lane id=":C2_0_0" depart="0" maxspeed="13.90" length="18.55" shape="304.95,293.45 304.23,298.48 302.08,302.07 298.48,304.23 293.45,304.95"/>
      </lanes>
   </edge>
   <edge id=":C2_1" function="internal">
      <lanes>
         <lane id=":C2_1_0" depart="0" maxspeed="13.90" length="13.22" shape="301.65,293.45 301.14,297.04 299.60,299.60 297.04,301.14 293.45,301.65"/>
      </lanes>
   </edge>
   <edge id=":C2_2" function="internal">
      <lanes>
         <lane id=":C2_2_0" depart="0" maxspeed="13.90" length="0.10" shape="301.65,293.45 300.88,294.60"/>
      </lanes>
   </edge>
   <edge id=":C2_6" function="internal">
      <lanes>
         <lane id=":C2_6_0" depart="0" maxspeed="13.90" length="4.72" shape="300.88,294.60 300.83,294.69 300.00,295.10 299.18,294.69 298.35,293.45"/>
      </lanes>
   </edge>
   <edge id=":C2_3" function="internal">
      <lanes>
         <lane id=":C2_3_0" depart="0" maxspeed="13.90" length="2.58" shape="293.45,295.05 294.15,294.95 294.65,294.65 294.95,294.15 295.05,293.45"/>
      </lanes>
   </edge>
   <edge id=":C2_4" function="internal">
      <lanes>
         <lane id=":C2_4_0" depart="0" maxspeed="13.90" length="7.90" shape="293.45,298.35 295.59,298.04 297.12,297.13 298.04,295.59 298.35,293.45"/>
      </lanes>
   </edge>
   <edge id=":C2_5" function="internal">
      <lanes>
         <lane id=":C2_5_0" depart="0" maxspeed="13.90" length="0.10" shape="293.45,298.35 294.60,299.12"/>
      </lanes>
   </edge>
   <edge id=":C2_7" function="internal">
      <lanes>
         <lane id=":C2_7_0" depart="0" maxspeed="13.90" length="4.72" shape="294.60,299.12 294.69,299.18 295.10,300.00 294.69,300.83 293.45,301.65"/>
      </lanes>
   </edge>

   <edge id="A0A1" from="A0" to="A1" priority="-1" type="main_street" function="normal">
      <lanes>
         <lane id="A0A1_0" depart="1" maxspeed="13.90" length="138.70" shape="4.95,6.55 4.95,145.25"/>
         <lane id="A0A1_1" depart="0" maxspeed="13.90" length="138.70" shape="1.65,6.55 1.65,145.25"/>
      </lanes>
   </edge>
   <edge id="A0B0" from="A0" to="B0" priority="-1" type="main_street" function="normal">
      <lanes>
         <lane id="A0B0_0" depart="1" maxspeed="13.90" length="138.70" shape="6.55,-4.95 145.25,-4.95"/>
         <lane id="A0B0_1" depart="0" maxspeed="13.90" length="138.70" shape="6.55,-1.65 145.25,-1.65"/>
      </lanes>
   </edge>
   <edge id="A1A0" from="A1" to="A0" priority="-1" type="main_street" function="normal">
      <lanes>
         <lane id="A1A0_0" depart="1" maxspeed="13.90" length="138.70" shape="-4.95,145.25 -4.95,6.55"/>
         <lane id="A1A0_1" depart="0" maxspeed="13.90" length="138.70" shape="-1.65,145.25 -1.65,6.55"/>
      </lanes>
   </edge>
   <edge id="A1A2" from="A1" to="A2" priority="-1" type="main_street" function="normal">
      <lanes>
         <lane id="A1A2_0" depart="1" maxspeed="13.90" length="138.70" shape="4.95,154.75 4.95,293.45"/>
         <lane id="A1A2_1" depart="0" maxspeed="13.90" length="138.70" shape="1.65,154.75 1.65,293.45"/>
      </lanes>
   </edge>
   <edge id="A1B1" from="A1" to="B1" priority="-1" type="small_street" function="normal">
      <lanes>
         <lane id="A1B1_0" depart="1" maxspeed="11.10" length="137.20" shape="8.05,148.35 145.25,148.35"/>
      </lanes>
   </edge>
   <edge id="A2A1" from="A2" to="A1" priority="-1" type="main_street" function="normal">
      <lanes>
         <lane id="A2A1_0" depart="1" maxspeed="13.90" length="138.70" shape="-4.95,293.45 -4.95,154.75"/>
         <lane id="A2A1_1" depart="0" maxspeed="13.90" length="138.70" shape="-1.65,293.45 -1.65,154.75"/>
      </lanes>
   </edge>
   <edge id="A2B2" from="A2" to="B2" priority="-1" type="main_street" function="normal">
      <lanes>
         <lane id="A2B2_0" depart="1" maxspeed="13.90" length="138.70" shape="6.55,295.05 145.25,295.05"/>
         <lane id="A2B2_1" depart="0" maxspeed="13.90" length="138.70" shape="6.55,298.35 145.25,298.35"/>
      </lanes>
   </edge>
   <edge id="B0A0" from="B0" to="A0" priority="-1" type="main_street" function="normal">
      <lanes>
         <lane id="B0A0_0" depart="1" maxspeed="13.90" length="138.70" shape="145.25,4.95 6.55,4.95"/>
         <lane id="B0A0_1" depart="0" maxspeed="13.90" length="138.70" shape="145.25,1.65 6.55,1.65"/>
      </lanes>
   </edge>
   <edge id="B0B1" from="B0" to="B1" priority="-1" type="small_street" function="normal">
      <lanes>
         <lane id="B0B1_0" depart="1" maxspeed="11.10" length="137.20" shape="151.65,8.05 151.65,145.25"/>
      </lanes>
   </edge>
   <edge id="B0C0" from="B0" to="C0" priority="-1" type="main_street" function="normal">
      <lanes>
         <lane id="B0C0_0" depart="1" maxspeed="13.90" length="138.70" shape="154.75,-4.95 293.45,-4.95"/>
         <lane id="B0C0_1" depart="0" maxspeed="13.90" length="138.70" shape="154.75,-1.65 293.45,-1.65"/>
      </lanes>
   </edge>
   <edge id="B1A1" from="B1" to="A1" priority="-1" type="small_street" function="normal">
      <lanes>
         <lane id="B1A1_0" depart="1" maxspeed="11.10" length="137.20" shape="145.25,151.65 8.05,151.65"/>
      </lanes>
   </edge>
   <edge id="B1B0" from="B1" to="B0" priority="-1" type="small_street" function="normal">
      <lanes>
         <lane id="B1B0_0" depart="1" maxspeed="11.10" length="137.20" shape="148.35,145.25 148.35,8.05"/>
      </lanes>
   </edge>
   <edge id="B1B2" from="B1" to="B2" priority="-1" type="small_street" function="normal">
      <lanes>
         <lane id="B1B2_0" depart="1" maxspeed="11.10" length="137.20" shape="151.65,154.75 151.65,291.95"/>
      </lanes>
   </edge>
   <edge id="B1C1" from="B1" to="C1" priority="-1" type="small_street" function="normal">
      <lanes>
         <lane id="B1C1_0" depart="1" maxspeed="11.10" length="137.20" shape="154.75,148.35 291.95,148.35"/>
      </lanes>
   </edge>
   <edge id="B2A2" from="B2" to="A2" priority="-1" type="main_street" function="normal">
      <lanes>
         <lane id="B2A2_0" depart="1" maxspeed="13.90" length="138.70" shape="145.25,304.95 6.55,304.95"/>
         <lane id="B2A2_1" depart="0" maxspeed="13.90" length="138.70" shape="145.25,301.65 6.55,301.65"/>
      </lanes>
   </edge>
   <edge id="B2B1" from="B2" to="B1" priority="-1" type="small_street" function="normal">
      <lanes>
         <lane id="B2B1_0" depart="1" maxspeed="11.10" length="137.20" shape="148.35,291.95 148.35,154.75"/>
      </lanes>
   </edge>
   <edge id="B2C2" from="B2" to="C2" priority="-1" type="main_street" function="normal">
      <lanes>
         <lane id="B2C2_0" depart="1" maxspeed="13.90" length="138.70" shape="154.75,295.05 293.45,295.05"/>
         <lane id="B2C2_1" depart="0" maxspeed="13.90" length="138.70" shape="154.75,298.35 293.45,298.35"/>
      </lanes>
   </edge>
   <edge id="C0B0" from="C0" to="B0" priority="-1" type="main_street" function="normal">
      <lanes>
         <lane id="C0B0_0" depart="1" maxspeed="13.90" length="138.70" shape="293.45,4.95 154.75,4.95"/>
         <lane id="C0B0_1" depart="0" maxspeed="13.90" length="138.70" shape="293.45,1.65 154.75,1.65"/>
      </lanes>
   </edge>
   <edge id="C0C1" from="C0" to="C1" priority="-1" type="main_street" function="normal">
      <lanes>
         <lane id="C0C1_0" depart="1" maxspeed="13.90" length="138.70" shape="304.95,6.55 304.95,145.25"/>
         <lane id="C0C1_1" depart="0" maxspeed="13.90" length="138.70" shape="301.65,6.55 301.65,145.25"/>
      </lanes>
   </edge>