<?xml version="1.0"?>

<!-- generated on 05/03/11 17:35:20 by SUMO netconvert Version 0.12.3
<?xml version="1.0" encoding="iso-8859-1"?>

<configuration xmlns:xsi="http://www.w3.org/2001/XMLSchema-instance" xsi:noNamespaceSchemaLocation="http://sumo.sf.net/xsd/netconvertConfiguration.xsd">

    <input>
        <osm-files value="highway.osm"/>
    </input>

    <output>
        <output-file value="highway.net.xml"/>
    </output>

    <projection>
        <proj.utm value="true"/>
    </projection>

    <building_defaults>
        <speed value="28.3"/>
    </building_defaults>

</configuration>
-->

<net>

   <location netOffset="-586531.82,-4819566.93" convBoundary="0.00,0.00,6731.38,3727.67" origBoundary="-79.929224,43.524029,-79.845309,43.556780" projParameter="+proj=utm +zone=17 +ellps=WGS84 +datum=WGS84 +units=m +no_defs"/>

   <edge id=":21380089_0" function="internal">
      <lanes>
         <lane id=":21380089_0_0" depart="0" maxspeed="27.78" length="0.10" shape="731.64,132.51 731.65,132.51"/>
      </lanes>
   </edge>
   <edge id=":21380089_1" function="internal">
      <lanes>
         <lane id=":21380089_1_0" depart="0" maxspeed="27.78" length="0.10" shape="731.04,135.76 731.09,135.77"/>
      </lanes>
   </edge>
   <edge id=":21380089_2" function="internal">
      <lanes>
         <lane id=":21380089_2_0" depart="0" maxspeed="27.78" length="0.10" shape="730.45,139.01 730.52,139.02"/>
      </lanes>
   </edge>
   <edge id=":21380090_0" function="internal">
      <lanes>
         <lane id=":21380090_0_0" depart="0" maxspeed="27.78" length="0.10" shape="728.92,166.88 728.89,166.87"/>
      </lanes>
   </edge>
   <edge id=":21380090_1" function="internal">
      <lanes>
         <lane id=":21380090_1_0" depart="0" maxspeed="27.78" length="0.10" shape="729.47,163.62 729.46,163.62"/>
      </lanes>
   </edge>
   <edge id=":21380090_2" function="internal">
      <lanes>
         <lane id=":21380090_2_0" depart="0" maxspeed="27.78" length="0.10" shape="730.03,160.37 730.02,160.37"/>
      </lanes>
   </edge>
   <edge id=":21380145_0" function="internal">
      <lanes>
         <lane id=":21380145_0_0" depart="0" maxspeed="27.78" length="0.10" shape="4450.31,1679.13 4450.31,1679.13"/>
      </lanes>
   </edge>
   <edge id=":21380145_1" function="internal">
      <lanes>
         <lane id=":21380145_1_0" depart="0" maxspeed="27.78" length="0.10" shape="4449.55,1682.34 4449.64,1682.36"/>
      </lanes>
   </edge>
   <edge id=":21380145_2" function="internal">
      <lanes>
         <lane id=":21380145_2_0" depart="0" maxspeed="27.78" length="0.23" shape="4448.80,1685.56 4449.02,1685.61"/>
      </lanes>
   </edge>
   <edge id=":21380146_0" function="internal">
      <lanes>
         <lane id=":21380146_0_0" depart="0" maxspeed="27.78" length="0.12" shape="4444.32,1711.08 4444.20,1711.05"/>
      </lanes>
   </edge>
   <edge id=":21380146_1" function="internal">
      <lanes>
         <lane id=":21380146_1_0" depart="0" maxspeed="27.78" length="0.10" shape="4445.01,1707.85 4444.94,1707.83"/>
      </lanes>
   </edge>
   <edge id=":21380146_2" function="internal">
      <lanes>
         <lane id=":21380146_2_0" depart="0" maxspeed="27.78" length="0.10" shape="4445.70,1704.62 4445.68,1704.62"/>
      </lanes>
   </edge>
   <edge id=":21380160_0" function="internal">
      <lanes>
         <lane id=":21380160_0_0" depart="0" maxspeed="27.78" length="0.10" shape="2626.47,899.69 2626.47,899.69"/>
      </lanes>
   </edge>
   <edge id=":21380160_1" function="internal">
      <lanes>
         <lane id=":21380160_1_0" depart="0" maxspeed="27.78" length="0.10" shape="2624.69,902.47 2624.69,902.47"/>
      </lanes>
   </edge>
   <edge id=":21380160_2" function="internal">
      <lanes>
         <lane id=":21380160_2_0" depart="0" maxspeed="27.78" length="0.10" shape="2622.91,905.25 2622.92,905.25"/>
      </lanes>
   </edge>
   <edge id=":21380161_0" function="internal">
      <lanes>
         <lane id=":21380161_0_0" depart="0" maxspeed="27.78" length="0.10" shape="2600.04,925.72 2600.04,925.72"/>
      </lanes>
   </edge>
   <edge id=":21380161_1" function="internal">
      <lanes>
         <lane id=":21380161_1_0" depart="0" maxspeed="27.78" length="0.10" shape="2601.79,922.92 2601.74,922.89"/>
      </lanes>
   </edge>
   <edge id=":21380161_2" function="internal">
      <lanes>
         <lane id=":21380161_2_0" depart="0" maxspeed="27.78" length="0.18" shape="2603.59,920.15 2603.44,920.06"/>
      </lanes>
   </edge>
   <edge id=":21380162_0" function="internal">
      <lanes>
         <lane id=":21380162_0_0" depart="0" maxspeed="27.78" length="0.10" shape="2701.69,947.71 2701.69,947.71"/>
      </lanes>
   </edge>
   <edge id=":21380162_1" function="internal">
      <lanes>
         <lane id=":21380162_1_0" depart="0" maxspeed="27.78" length="0.10" shape="2699.90,950.48 2699.91,950.49"/>
      </lanes>
   </edge>
   <edge id=":21380162_2" function="internal">
      <lanes>
         <lane id=":21380162_2_0" depart="0" maxspeed="27.78" length="0.10" shape="2698.11,953.25 2698.13,953.26"/>
      </lanes>
   </edge>
   <edge id=":21380163_0" function="internal">
      <lanes>
         <lane id=":21380163_0_0" depart="0" maxspeed="27.78" length="0.21" shape="2682.69,975.25 2682.51,975.14"/>
      </lanes>
   </edge>
   <edge id=":21380163_1" function="internal">
      <lanes>
         <lane id=":21380163_1_0" depart="0" maxspeed="27.78" length="0.12" shape="2684.42,972.44 2684.31,972.37"/>
      </lanes>
   </edge>
   <edge id=":21380163_2" function="internal">
      <lanes>
         <lane id=":21380163_2_0" depart="0" maxspeed="27.78" length="0.10" shape="2686.15,969.63 2686.11,969.60"/>
      </lanes>
   </edge>
   <edge id=":621091435_0" function="internal">
      <lanes>
         <lane id=":621091435_0_0" depart="0" maxspeed="27.78" length="0.22" shape="6304.67,3220.07 6304.53,3219.89"/>
      </lanes>
   </edge>
   <edge id=":621091435_1" function="internal">
      <lanes>
         <lane id=":621091435_1_0" depart="0" maxspeed="27.78" length="0.13" shape="6307.23,3217.99 6307.15,3217.88"/>
      </lanes>
   </edge>
   <edge id=":621091435_2" function="internal">
      <lanes>
         <lane id=":621091435_2_0" depart="0" maxspeed="27.78" length="0.10" shape="6309.79,3215.91 6309.77,3215.87"/>
      </lanes>
   </edge>
   <edge id=":621091451_0" function="internal">
      <lanes>
         <lane id=":621091451_0_0" depart="0" maxspeed="27.78" length="0.10" shape="6276.71,3135.62 6276.71,3135.62"/>
      </lanes>
   </edge>
   <edge id=":621091451_1" function="internal">
      <lanes>
         <lane id=":621091451_1_0" depart="0" maxspeed="27.78" length="0.10" shape="6274.15,3137.71 6274.15,3137.71"/>
      </lanes>
   </edge>
   <edge id=":621091451_2" function="internal">
      <lanes>
         <lane id=":621091451_2_0" depart="0" maxspeed="27.78" length="0.10" shape="6271.56,3139.76 6271.59,3139.79"/>
      </lanes>
   </edge>
   <edge id=":621091454_0" function="internal">
      <lanes>
         <lane id=":621091454_0_0" depart="0" maxspeed="27.78" length="0.10" shape="6341.84,3215.45 6341.85,3215.47"/>
      </lanes>
   </edge>
   <edge id=":621091454_1" function="internal">
      <lanes>
         <lane id=":621091454_1_0" depart="0" maxspeed="27.78" length="0.10" shape="6339.24,3217.48 6339.28,3217.53"/>
      </lanes>
   </edge>
   <edge id=":621091454_2" function="internal">
      <lanes>
         <lane id=":621091454_2_0" depart="0" maxspeed="27.78" length="0.11" shape="6336.63,3219.51 6336.70,3219.59"/>
      </lanes>
   </edge>
   <edge id=":621091476_0" function="internal">
      <lanes>
         <lane id=":621091476_0_0" depart="0" maxspeed="27.78" length="0.10" shape="6250.95,3155.48 6250.95,3155.48"/>
      </lanes>
   </edge>
   <edge id=":621091476_1" function="internal">
      <lanes>
         <lane id=":621091476_1_0" depart="0" maxspeed="27.78" length="0.10" shape="6253.51,3153.40 6253.49,3153.37"/>
      </lanes>
   </edge>
   <edge id=":621091476_2" function="internal">
      <lanes>
         <lane id=":621091476_2_0" depart="0" maxspeed="27.78" length="0.13" shape="6256.10,3151.36 6256.02,3151.26"/>
      </lanes>
   </edge>

   <edge id="24846349" from="21380162" to="21380145" priority="13" type="highway.motorway" function="normal">
      <lanes>
         <lane id="24846349_0" depart="1" maxspeed="27.78" length="1922.26" shape="2701.69,947.71 3195.56,1266.34 3403.62,1395.84 3516.57,1449.07 3666.60,1506.89 3787.10,1540.35 4229.99,1637.10 4450.31,1679.13"/>
         <lane id="24846349_1" depart="0" maxspeed="27.78" length="1922.26" shape="2699.91,950.49 3193.77,1269.11 3401.88,1398.65 3515.16,1452.06 3665.41,1509.97 3786.22,1543.53 4229.28,1640.33 4449.55,1682.34"/>
         <lane id="24846349_2" depart="0" maxspeed="27.78" length="1922.26" shape="2698.13,953.26 3191.98,1271.88 3400.14,1401.45 3513.76,1455.04 3664.23,1513.05 3785.34,1546.71 4228.58,1643.55 4448.80,1685.56"/>
      </lanes>
   </edge>
   <edge id="24846356" from="21380160" to="21380162" priority="13" type="highway.motorway" function="normal">
      <lanes>
         <lane id="24846356_0" depart="1" maxspeed="27.78" length="89.22" shape="2626.47,899.69 2701.69,947.71"/>
         <lane id="24846356_1" depart="0" maxspeed="27.78" length="89.22" shape="2624.69,902.47 2699.90,950.48"/>
         <lane id="24846356_2" depart="0" maxspeed="27.78" length="89.22" shape="2622.92,905.25 2698.11,953.25"/>
      </lanes>
   </edge>
   <edge id="24846365" from="21380163" to="21380161" priority="13" type="highway.motorway" function="normal">
      <lanes>
         <lane id="24846365_0" depart="1" maxspeed="27.78" length="96.18" shape="2682.51,975.14 2600.04,925.72"/>
         <lane id="24846365_1" depart="0" maxspeed="27.78" length="96.18" shape="2684.31,972.37 2601.79,922.92"/>
         <lane id="24846365_2" depart="0" maxspeed="27.78" length="96.18" shape="2686.11,969.60 2603.59,920.15"/>
      </lanes>
   </edge>
   <edge id="24846372" from="21380161" to="21380090" priority="13" type="highway.motorway" function="normal">
      <lanes>
         <lane id="24846372_0" depart="1" maxspeed="27.78" length="2057.40" shape="2600.04,925.72 2356.28,767.57 2107.94,604.74 1949.40,502.77 1930.86,490.84 1806.96,411.16 1693.99,353.94 1596.82,320.91 1414.71,284.70 1093.07,230.62 728.92,166.88"/>
         <lane id="24846372_1" depart="0" maxspeed="27.78" length="2057.40" shape="2601.74,922.89 2358.08,764.80 2109.75,601.98 1951.19,500.00 1932.65,488.07 1808.75,408.38 1695.48,351.00 1597.88,317.78 1415.36,281.46 1093.62,227.36 729.47,163.62"/>
         <lane id="24846372_2" depart="0" maxspeed="27.78" length="2057.40" shape="2603.44,920.06 2359.88,762.03 2111.56,599.22 1952.97,497.22 1934.43,485.29 1810.53,405.61 1696.97,348.06 1598.94,314.66 1416.00,278.22 1094.16,224.11 730.03,160.37"/>
      </lanes>
   </edge>
   <edge id="4038595" from="21380090" to="21380143" priority="13" type="highway.motorway" function="normal">
      <lanes>
         <lane id="4038595_0" depart="1" maxspeed="27.78" length="743.54" shape="728.89,166.87 125.25,65.32 -0.95,27.28"/>
         <lane id="4038595_1" depart="0" maxspeed="27.78" length="743.54" shape="729.46,163.62 125.80,62.06 -0.00,24.12"/>
         <lane id="4038595_2" depart="0" maxspeed="27.78" length="743.54" shape="730.02,160.37 126.35,58.81 0.95,20.96"/>
      </lanes>
   </edge>
   <edge id="4038596" from="21380089" to="21380160" priority="13" type="highway.motorway" function="normal">
      <lanes>
         <lane id="4038596_0" depart="1" maxspeed="27.78" length="2079.72" shape="731.65,132.51 1096.48,199.19 1418.90,251.29 1602.28,288.65 1701.69,319.99 1821.22,379.63 1960.80,470.48 1985.02,486.25 2120.36,574.38 2324.76,705.76 2626.47,899.69"/>
         <lane id="4038596_1" depart="0" maxspeed="27.78" length="2079.72" shape="731.09,135.77 1095.89,202.43 1418.38,254.55 1601.62,291.89 1700.70,323.13 1819.75,382.58 1959.00,473.24 1983.22,489.01 2118.56,577.15 2322.97,708.53 2624.69,902.47"/>
         <lane id="4038596_2" depart="0" maxspeed="27.78" length="2079.72" shape="730.52,139.02 1095.30,205.68 1417.85,257.81 1600.97,295.12 1699.71,326.28 1818.27,385.53 1957.20,476.01 1981.42,491.78 2116.76,579.91 2321.19,711.31 2622.91,905.25"/>
      </lanes>
   </edge>
   <edge id="4038597" from="21380146" to="21380163" priority="13" type="highway.motorway" function="normal">
      <lanes>
         <lane id="4038597_0" depart="1" maxspeed="27.78" length="1933.50" shape="4444.20,1711.05 4225.41,1666.47 3780.11,1572.63 3656.19,1535.98 3507.14,1482.02 3392.11,1424.45 3181.55,1299.76 2682.69,975.25"/>
         <lane id="4038597_1" depart="0" maxspeed="27.78" length="1933.50" shape="4444.94,1707.83 4226.07,1663.23 3780.79,1569.40 3657.12,1532.82 3508.27,1478.91 3393.59,1421.49 3183.23,1296.92 2684.42,972.44"/>
         <lane id="4038597_2" depart="0" maxspeed="27.78" length="1933.50" shape="4445.68,1704.62 4226.73,1660.00 3781.47,1566.17 3658.06,1529.65 3509.39,1475.81 3395.07,1418.54 3184.91,1294.08 2686.15,969.63"/>
      </lanes>
   </edge>
   <edge id="4038598" from="21380145" to="621091451" priority="13" type="highway.motorway" function="normal">
      <lanes>
         <lane id="4038598_0" depart="1" maxspeed="27.78" length="2411.94" shape="4450.31,1679.13 4786.16,1758.07 5030.03,1852.22 5247.87,1976.92 5422.59,2107.22 5507.61,2183.28 5595.31,2273.10 5655.52,2351.61 5791.85,2520.66 5842.00,2583.81 6145.43,2970.19 6276.71,3135.62"/>
         <lane id="4038598_1" depart="0" maxspeed="27.78" length="2411.94" shape="4449.64,1682.36 4785.41,1761.29 5028.84,1855.30 5246.23,1979.79 5420.62,2109.87 5505.41,2185.74 5592.95,2275.41 5652.91,2353.62 5789.28,2522.74 5839.42,2585.86 6142.83,2972.23 6274.15,3137.71"/>
         <lane id="4038598_2" depart="0" maxspeed="27.78" length="2411.94" shape="4449.02,1685.61 4784.65,1764.50 5027.66,1858.38 5244.59,1982.65 5418.64,2112.51 5503.21,2188.20 5590.59,2277.71 5650.29,2355.63 5786.72,2524.81 5836.83,2587.92 6140.24,2974.27 6271.56,3139.76"/>
      </lanes>
   </edge>
   <edge id="4038599" from="21380195" to="621091435" priority="13" type="highway.motorway" function="normal">
      <lanes>
         <lane id="4038599_0" depart="1" maxspeed="27.78" length="647.51" shape="6703.72,3729.80 6572.23,3574.23 6427.91,3380.61 6304.67,3220.07"/>
         <lane id="4038599_1" depart="0" maxspeed="27.78" length="647.51" shape="6706.24,3727.67 6574.75,3572.10 6430.56,3378.64 6307.23,3217.99"/>
         <lane id="4038599_2" depart="0" maxspeed="27.78" length="647.51" shape="6708.76,3725.54 6577.27,3569.97 6433.21,3376.67 6309.79,3215.91"/>
      </lanes>
   </edge>
   <edge id="48948852" from="621091451" to="621091454" priority="13" type="highway.motorway" function="normal">
      <lanes>
         <lane id="48948852_0" depart="1" maxspeed="27.78" length="102.96" shape="6276.71,3135.62 6341.84,3215.45"/>
         <lane id="48948852_1" depart="0" maxspeed="27.78" length="102.96" shape="6274.15,3137.71 6339.24,3217.48"/>
         <lane id="48948852_2" depart="0" maxspeed="27.78" length="102.96" shape="6271.59,3139.79 6336.63,3219.51"/>
      </lanes>
   </edge>
   <edge id="48948853" from="621091454" to="21380194" priority="13" type="highway.motorway" function="normal">
      <lanes>
         <lane id="48948853_0" depart="1" maxspeed="27.78" length="633.97" shape="6341.85,3215.47 6451.39,3355.74 6733.97,3713.65"/>
         <lane id="48948853_1" depart="0" maxspeed="27.78" length="633.97" shape="6339.28,3217.53 6448.78,3357.77 6731.38,3715.69"/>
         <lane id="48948853_2" depart="0" maxspeed="27.78" length="633.97" shape="6336.70,3219.59 6446.18,3359.80 6728.79,3717.74"/>
      </lanes>
   </edge>
   <edge id="48948854" from="621091476" to="21380146" priority="13" type="highway.motorway" function="normal">
      <lanes>
         <lane id="48948854_0" depart="1" maxspeed="27.78" length="2393.01" shape="6250.95,3155.48 6121.44,2990.74 5823.02,2614.14 5597.17,2335.71 5537.70,2262.40 5404.57,2134.07 5328.62,2075.73 5236.86,2005.21 5020.48,1882.74 4776.20,1787.14 4444.32,1711.08"/>
         <lane id="48948854_1" depart="0" maxspeed="27.78" length="2393.01" shape="6253.49,3153.37 6124.03,2988.70 5825.61,2612.09 5599.73,2333.63 5540.26,2260.32 5406.87,2131.70 5330.63,2073.11 5238.87,2002.59 5022.10,1879.87 4777.40,1784.07 4445.01,1707.85"/>
         <lane id="48948854_2" depart="0" maxspeed="27.78" length="2393.01" shape="6256.02,3151.26 6126.62,2986.66 5828.20,2610.04 5602.30,2331.55 5542.83,2258.24 5409.16,2129.32 5332.64,2070.50 5240.88,1999.97 5023.73,1876.99 4778.61,1781.00 4445.70,1704.62"/>
      </lanes>
   </edge>
   <edge id="48948855" from="621091435" to="621091476" priority="13" type="highway.motorway" function="normal">
      <lanes>
         <lane id="48948855_0" depart="1" maxspeed="27.78" length="83.86" shape="6304.53,3219.89 6250.95,3155.48"/>
         <lane id="48948855_1" depart="0" maxspeed="27.78" length="83.86" shape="6307.15,3217.88 6253.51,3153.40"/>
         <lane id="48948855_2" depart="0" maxspeed="27.78" length="83.86" shape="6309.77,3215.87 6256.10,3151.36"/>
      </lanes>
   </edge>
   <edge id="59542444" from="21380140" to="21380089" priority="13" type="highway.motorway" function="normal">
      <lanes>
         <lane id="59542444_0" depart="1" maxspeed="27.78" length="736.09" shape="9.32,-3.16 130.75,32.71 731.64,132.51"/>
         <lane id="59542444_1" depart="0" maxspeed="27.78" length="736.09" shape="8.38,-0.00 129.82,35.88 731.04,135.76"/>
         <lane id="59542444_2" depart="0" maxspeed="27.78" length="736.09" shape="7.45,3.16 128.88,39.04 730.45,139.01"/>
      </lanes>
   </edge>

   <row-logic id="21380089" requestSize="3" laneNumber="3">
      <logic>
         <logicitem request="0" response="000" foes="000" cont="0"/>
         <logicitem request="1" response="000" foes="000" cont="0"/>
         <logicitem request="2" response="000" foes="000" cont="0"/>
      </logic>
   </row-logic>
   <row-logic id="21380090" requestSize="3" laneNumber="3">
      <logic>
         <logicitem request="0" response="000" foes="000" cont="0"/>
         <logicitem request="1" response="000" foes="000" cont="0"/>
         <logicitem request="2" response="000" foes="000" cont="0"/>
      </logic>
   </row-logic>
   <row-logic id="21380145" requestSize="3" laneNumber="3">
      <logic>
         <logicitem request="0" response="000" foes="000" cont="0"/>
         <logicitem request="1" response="000" foes="000" cont="0"/>
         <logicitem request="2" response="000" foes="000" cont="0"/>
      </logic>
   </row-logic>
   <row-logic id="21380146" requestSize="3" laneNumber="3">
      <logic>
         <logicitem request="0" response="000" foes="000" cont="0"/>
         <logicitem request="1" response="000" foes="000" cont="0"/>
         <logicitem request="2" response="000" foes="000" cont="0"/>
      </logic>
   </row-logic>
   <row-logic id="21380160" requestSize="3" laneNumber="3">
      <logic>
         <logicitem request="0" response="000" foes="000" cont="0"/>
         <logicitem request="1" response="000" foes="000" cont="0"/>
         <logicitem request="2" response="000" foes="000" cont="0"/>
      </logic>
   </row-logic>
   <row-logic id="21380161" requestSize="3" laneNumber="3">
      <logic>
         <logicitem request="0" response="000" foes="000" cont="0"/>
         <logicitem request="1" response="000" foes="000" cont="0"/>
         <logicitem request="2" response="000" foes="000" cont="0"/>
      </logic>
   </row-logic>
   <row-logic id="21380162" requestSize="3" laneNumber="3">
      <logic>
         <logicitem request="0" response="000" foes="000" cont="0"/>
         <logicitem request="1" response="000" foes="000" cont="0"/>
         <logicitem request="2" response="000" foes="000" cont="0"/>
      </logic>
   </row-logic>
   <row-logic id="21380163" requestSize="3" laneNumber="3">
      <logic>
         <logicitem request="0" response="000" foes="000" cont="0"/>
         <logicitem request="1" response="000" foes="000" cont="0"/>
         <logicitem request="2" response="000" foes="000" cont="0"/>
      </logic>
   </row-logic>
   <row-logic id="621091435" requestSize="3" laneNumber="3">
      <logic>
         <logicitem request="0" response="000" foes="000" cont="0"/>
         <logicitem request="1" response="000" foes="000" cont="0"/>
         <logicitem request="2" response="000" foes="000" cont="0"/>
      </logic>
   </row-logic>
   <row-logic id="621091451" requestSize="3" laneNumber="3">
      <logic>
         <logicitem request="0" response="000" foes="000" cont="0"/>
         <logicitem request="1" response="000" foes="000" cont="0"/>
         <logicitem request="2" response="000" foes="000" cont="0"/>
      </logic>
   </row-logic>
   <row-logic id="621091454" requestSize="3" laneNumber="3">
      <logic>
         <logicitem request="0" response="000" foes="000" cont="0"/>
         <logicitem request="1" response="000" foes="000" cont="0"/>
         <logicitem request="2" response="000" foes="000" cont="0"/>
      </logic>
   </row-logic>
   <row-logic id="621091476" requestSize="3" laneNumber="3">
      <logic>
         <logicitem request="0" response="000" foes="000" cont="0"/>
         <logicitem request="1" response="000" foes="000" cont="0"/>
         <logicitem request="2" response="000" foes="000" cont="0"/>
      </logic>
   </row-logic>

   <junction id="21380089" type="priority" x="731.05" y="135.76" incLanes="59542444_0 59542444_1 59542444_2" intLanes=":21380089_0_0 :21380089_1_0 :21380089_2_0" shape="730.16,140.58 731.92,130.94 730.25,140.59"/>
   <junction id="21380090" type="priority" x="729.46" y="163.62" incLanes="24846372_0 24846372_1 24846372_2" intLanes=":21380090_0_0 :21380090_1_0 :21380090_2_0" shape="728.61,168.45 730.30,158.79 728.65,168.45"/>
   <junction id="21380140" type="DEAD_END" x="8.38" y="0.00" incLanes="" intLanes="" shape="7.00,4.70 9.77,-4.70"/>
   <junction id="21380143" type="DEAD_END" x="0.00" y="24.12" incLanes="4038595_0 4038595_1 4038595_2" intLanes="" shape="-1.41,28.81 1.41,19.43"/>
   <junction id="21380145" type="priority" x="4449.60" y="1682.35" incLanes="24846349_0 24846349_1 24846349_2" intLanes=":21380145_0_0 :21380145_1_0 :21380145_2_0" shape="4448.43,1687.11 4450.68,1677.57 4450.56,1677.55 4448.72,1687.17"/>
   <junction id="21380146" type="priority" x="4444.95" y="1707.84" incLanes="48948854_0 48948854_1 48948854_2" intLanes=":21380146_0_0 :21380146_1_0 :21380146_2_0" shape="4443.84,1712.61 4446.04,1703.06 4443.99,1712.64"/>
   <junction id="21380160" type="priority" x="2624.69" y="902.47" incLanes="4038596_0 4038596_1 4038596_2" intLanes=":21380160_0_0 :21380160_1_0 :21380160_2_0" shape="2622.06,906.60 2627.33,898.34 2622.04,906.59"/>
   <junction id="21380161" type="priority" x="2601.77" y="922.91" incLanes="24846365_0 24846365_1 24846365_2" intLanes=":21380161_0_0 :21380161_1_0 :21380161_2_0" shape="2599.22,927.09 2604.26,918.69 2604.46,918.81 2599.13,927.03"/>
   <junction id="21380162" type="priority" x="2699.90" y="950.48" incLanes="24846356_0 24846356_1 24846356_2" intLanes=":21380162_0_0 :21380162_1_0 :21380162_2_0" shape="2697.24,954.60 2702.56,946.36 2697.26,954.61"/>
   <junction id="21380163" type="priority" x="2684.34" y="972.39" incLanes="4038597_0 4038597_1 4038597_2" intLanes=":21380163_0_0 :21380163_1_0 :21380163_2_0" shape="2681.64,976.48 2686.99,968.26 2681.85,976.61"/>
   <junction id="21380194" type="DEAD_END" x="6731.38" y="3715.69" incLanes="48948853_0 48948853_1 48948853_2" intLanes="" shape="6735.23,3712.66 6727.54,3718.73"/>
   <junction id="21380195" type="DEAD_END" x="6706.24" y="3727.67" incLanes="" intLanes="" shape="6709.98,3724.51 6702.50,3730.84"/>
   <junction id="621091435" type="priority" x="6307.17" y="3217.91" incLanes="4038599_0 4038599_1 4038599_2" intLanes=":621091435_0_0 :621091435_1_0 :621091435_2_0" shape="6303.26,3220.87 6311.04,3214.90 6303.43,3221.07"/>
   <junction id="621091451" type="priority" x="6274.15" y="3137.71" incLanes="4038598_0 4038598_1 4038598_2" intLanes=":621091451_0_0 :621091451_1_0 :621091451_2_0" shape="6270.35,3140.80 6277.95,3134.61 6270.32,3140.76"/>
   <junction id="621091454" type="priority" x="6339.24" y="3217.49" incLanes="48948852_0 48948852_1 48948852_2" intLanes=":621091454_0_0 :621091454_1_0 :621091454_2_0" shape="6335.37,3220.50 6343.10,3214.46 6335.45,3220.60"/>
   <junction id="621091476" type="priority" x="6253.50" y="3153.39" incLanes="48948855_0 48948855_1 48948855_2" intLanes=":621091476_0_0 :621091476_1_0 :621091476_2_0" shape="6249.72,3156.51 6257.25,3150.24 6257.36,3150.37 6249.66,3156.43"/>

   <succ edge="24846349" lane="24846349_0" junction="21380145">
      <succlane lane="4038598_0" via=":21380145_0_0" yield="0" dir="s" state="M"/>
   </succ>
   <succ edge="24846349" lane="24846349_1" junction="21380145">
      <succlane lane="4038598_1" via=":21380145_1_0" yield="0" dir="s" state="M"/>
   </succ>
   <succ edge="24846349" lane="24846349_2" junction="21380145">
      <succlane lane="4038598_2" via=":21380145_2_0" yield="0" dir="s" state="M"/>
   </succ>
   <succ edge="24846356" lane="24846356_0" junction="21380162">
      <succlane lane="24846349_0" via=":21380162_0_0" yield="0" dir="s" state="M"/>
   </succ>
   <succ edge="24846356" lane="24846356_1" junction="21380162">
      <succlane lane="24846349_1" via=":21380162_1_0" yield="0" dir="s" state="M"/>
   </succ>
   <succ edge="24846356" lane="24846356_2" junction="21380162">
      <succlane lane="24846349_2" via=":21380162_2_0" yield="0" dir="s" state="M"/>
   </succ>
   <succ edge="24846365" lane="24846365_0" junction="21380161">
      <succlane lane="24846372_0" via=":21380161_0_0" yield="0" dir="s" state="M"/>
   </succ>
   <succ edge="24846365" lane="24846365_1" junction="21380161">
      <succlane lane="24846372_1" via=":21380161_1_0" yield="0" dir="s" state="M"/>
   </succ>
   <succ edge="24846365" lane="24846365_2" junction="21380161">
      <succlane lane="24846372_2" via=":21380161_2_0" yield="0" dir="s" state="M"/>
   </succ>
   <succ edge="24846372" lane="24846372_0" junction="21380090">
      <succlane lane="4038595_0" via=":21380090_0_0" yield="0" dir="s" state="M"/>
   </succ>
   <succ edge="24846372" lane="24846372_1" junction="21380090">
      <succlane lane="4038595_1" via=":21380090_1_0" yield="0" dir="s" state="M"/>
   </succ>
   <succ edge="24846372" lane="24846372_2" junction="21380090">
      <succlane lane="4038595_2" via=":21380090_2_0" yield="0" dir="s" state="M"/>
   </succ>
   <succ edge="4038595" lane="4038595_0" junction="21380143">
      <succlane lane="SUMO_NO_DESTINATION" yield="1" dir="s" state="O"/>
   </succ>
   <succ edge="4038595" lane="4038595_1" junction="21380143">
      <succlane lane="SUMO_NO_DESTINATION" yield="1" dir="s" state="O"/>
   </succ>
   <succ edge="4038595" lane="4038595_2" junction="21380143">
      <succlane lane="SUMO_NO_DESTINATION" yield="1" dir="s" state="O"/>
   </succ>
   <succ edge="4038596" lane="4038596_0" junction="21380160">
      <succlane lane="24846356_0" via=":21380160_0_0" yield="0" dir="s" state="M"/>
   </succ>
   <succ edge="4038596" lane="4038596_1" junction="21380160">
      <succlane lane="24846356_1" via=":21380160_1_0" yield="0" dir="s" state="M"/>
   </succ>
   <succ edge="4038596" lane="4038596_2" junction="21380160">
      <succlane lane="24846356_2" via=":21380160_2_0" yield="0" dir="s" state="M"/>
   </succ>
   <succ edge="4038597" lane="4038597_0" junction="21380163">
      <succlane lane="24846365_0" via=":21380163_0_0" yield="0" dir="s" state="M"/>
   </succ>
   <succ edge="4038597" lane="4038597_1" junction="21380163">
      <succlane lane="24846365_1" via=":21380163_1_0" yield="0" dir="s" state="M"/>
   </succ>
   <succ edge="4038597" lane="4038597_2" junction="21380163">
      <succlane lane="24846365_2" via=":21380163_2_0" yield="0" dir="s" state="M"/>
   </succ>
   <succ edge="4038598" lane="4038598_0" junction="621091451">
      <succlane lane="48948852_0" via=":621091451_0_0" yield="0" dir="s" state="M"/>
   </succ>
   <succ edge="4038598" lane="4038598_1" junction="621091451">
      <succlane lane="48948852_1" via=":621091451_1_0" yield="0" dir="s" state="M"/>
   </succ>
   <succ edge="4038598" lane="4038598_2" junction="621091451">
      <succlane lane="48948852_2" via=":621091451_2_0" yield="0" dir="s" state="M"/>
   </succ>
   <succ edge="4038599" lane="4038599_0" junction="621091435">
      <succlane lane="48948855_0" via=":621091435_0_0" yield="0" dir="s" state="M"/>
   </succ>
   <succ edge="4038599" lane="4038599_1" junction="621091435">
      <succlane lane="48948855_1" via=":621091435_1_0" yield="0" dir="s" state="M"/>
   </succ>
   <succ edge="4038599" lane="4038599_2" junction="621091435">
      <succlane lane="48948855_2" via=":621091435_2_0" yield="0" dir="s" state="M"/>
   </succ>
   <succ edge="48948852" lane="48948852_0" junction="621091454">
      <succlane lane="48948853_0" via=":621091454_0_0" yield="0" dir="s" state="M"/>
   </succ>
   <succ edge="48948852" lane="48948852_1" junction="621091454">
      <succlane lane="48948853_1" via=":621091454_1_0" yield="0" dir="s" state="M"/>
   </succ>
   <succ edge="48948852" lane="48948852_2" junction="621091454">
      <succlane lane="48948853_2" via=":621091454_2_0" yield="0" dir="s" state="M"/>
   </succ>
   <succ edge="48948853" lane="48948853_0" junction="21380194">
      <succlane lane="SUMO_NO_DESTINATION" yield="1" dir="s" state="O"/>
   </succ>
   <succ edge="48948853" lane="48948853_1" junction="21380194">
      <succlane lane="SUMO_NO_DESTINATION" yield="1" dir="s" state="O"/>
   </succ>
   <succ edge="48948853" lane="48948853_2" junction="21380194">
      <succlane lane="SUMO_NO_DESTINATION" yield="1" dir="s" state="O"/>
   </succ>
   <succ edge="48948854" lane="48948854_0" junction="21380146">
      <succlane lane="4038597_0" via=":21380146_0_0" yield="0" dir="s" state="M"/>
   </succ>