<routes>
  <vehicle id="e0.000000" type="highway_vehicles" route="highway_east" depart="0.000000" departlane="random" departspeed="max" />
  <vehicle id="w0.000000" type="highway_vehicles" route="highway_west" depart="0.000000" departlane="random" departspeed="max" />
  <vehicle id="e0.250000" type="highway_vehicles" route="highway_east" depart="0.250000" departlane="random" departspeed="max" />
  <vehicle id="w0.250000" type="highway_vehicles" route="highway_west" depart="0.250000" departlane="random" departspeed="max" />
  <vehicle id="e0.500000" type="highway_vehicles" route="highway_east" depart="0.500000" departlane="random" departspeed="max" />
  <vehicle id="w0.500000" type="highway_vehicles" route="highway_west" depart="0.500000" departlane="random" departspeed="max" />
  <vehicle id="e0.750000" type="highway_vehicles" route="highway_east" depart="0.750000" departlane="random" departspeed="max" />
  <vehicle id="w0.750000" type="highway_vehicles" route="highway_west" depart="0.750000" departlane="random" departspeed="max" />
  <vehicle id="e1.000000" type="highway_vehicles" route="highway_east" depart="1.000000" departlane="random" departspeed="max" />
  <vehicle id="w1.000000" type="highway_vehicles" route="highway_west" depart="1.000000" departlane="random" departspeed="max" />
  <vehicle id="e1.250000" type="highway_vehicles" route="highway_east" depart="1.250000" departlane="random" departspeed="max" />
  <vehicle id="w1.250000" type="highway_vehicles" route="highway_west" depart="1.250000" departlane="random" departspeed="max" />
  <vehicle id="e1.500000" type="highway_vehicles" route="highway_east" depart="1.500000" departlane="random" departspeed="max" />
  <vehicle id="w1.500000" type="highway_vehicles" route="highway_west" depart="1.500000" departlane="random" departspeed="max" />
  <vehicle id="e1.750000" type="highway_vehicles" route="highway_east" depart="1.750000" departlane="random" departspeed="max" />
  <vehicle id="w1.750000" type="highway_vehicles" route="highway_west" depart="1.750000" departlane="random" departspeed="max" />
  <vehicle id="e2.000000" type="highway_vehicles" route="highway_east" depart="2.000000" departlane="random" departspeed="max" />
  <vehicle id="w2.000000" type="highway_vehicles" route="highway_west" depart="2.000000" departlane="random" departspeed="max" />
  <vehicle id="e2.250000" type="highway_vehicles" route="highway_east" depart="2.250000" departlane="random" departspeed="max" />
  <vehicle id="w2.250000" type="highway_vehicles" route="highway_west" depart="2.250000" departlane="random" departspeed="max" />
  <vehicle id="e2.500000" type="highway_vehicles" route="highway_east" depart="2.500000" departlane="random" departspeed="max" />
  <vehicle id="w2.500000" type="highway_vehicles" route="highway_west" depart="2.500000" departlane="random" departspeed="max" />
  <vehicle id="e2.750000" type="highway_vehicles" route="highway_east" depart="2.750000" departlane="random" departspeed="max" />
  <vehicle id="w2.750000" type="highway_vehicles" route="highway_west" depart="2.750000" departlane="random" departspeed="max" />
  <vehicle id="e3.000000" type="highway_vehicles" route="highway_east" depart="3.000000" departlane="random" departspeed="max" />
  <vehicle id="w3.000000" type="highway_vehicles" route="highway_west" depart="3.000000" departlane="random" departspeed="max" />
  <vehicle id="e3.250000" type="highway_vehicles" route="highway_east" depart="3.250000" departlane="random" departspeed="max" />
  <vehicle id="w3.250000" type="highway_vehicles" route="highway_west" depart="3.250000" departlane="random" departspeed="max" />
  <vehicle id="e3.500000" type="highway_vehicles" route="highway_east" depart="3.500000" departlane="random" departspeed="max" />
  <vehicle id="w3.500000" type="highway_vehicles" route="highway_west" depart="3.500000" departlane="random" departspeed="max" />
  <vehicle id="e3.750000" type="highway_vehicles" route="highway_east" depart="3.750000" departlane="random" departspeed="max" />
  <vehicle id="w3.750000" type="highway_vehicles" route="highway_west" depart="3.750000" departlane="random" departspeed="max" />
  <vehicle id="e4.000000" type="highway_vehicles" route="highway_east" depart="4.000000" departlane="random" departspeed="max" />
  <vehicle id="w4.000000" type="highway_vehicles" route="highway_west" depart="4.000000" departlane="random" departspeed="max" />
  <vehicle id="e4.250000" type="highway_vehicles" route="highway_east" depart="4.250000" departlane="random" departspeed="max" />
  <vehicle id="w4.250000" type="highway_vehicles" route="highway_west" depart="4.250000" departlane="random" departspeed="max" />
  <vehicle id="e4.500000" type="highway_vehicles" route="highway_east" depart="4.500000" departlane="random" departspeed="max" />
  <vehicle id="w4.500000" type="highway_vehicles" route="highway_west" depart="4.500000" departlane="random" departspeed="max" />
  <vehicle id="e4.750000" type="highway_vehicles" route="highway_east" depart="4.750000" departlane="random" departspeed="max" />
  <vehicle id="w4.750000" type="highway_vehicles" route="highway_west" depart="4.750000" departlane="random" departspeed="max" />
  <vehicle id="e5.000000" type="highway_vehicles" route="highway_east" depart="5.000000" departlane="random" departspeed="max" />
  <vehicle id="w5.000000" type="highway_vehicles" route="highway_west" depart="5.000000" departlane="random" departspeed="max" />
  <vehicle id="e5.250000" type="highway_vehicles" route="highway_east" depart="5.250000" departlane="random" departspeed="max" />
  <vehicle id="w5.250000" type="highway_vehicles" route="highway_west" depart="5.250000" departlane="random" departspeed="max" />
  <vehicle id="e5.500000" type="highway_vehicles" route="highway_east" depart="5.500000" departlane="random" departspeed="max" />
  <vehicle id="w5.500000" type="highway_vehicles" route="highway_west" depart="5.500000" departlane="random" departspeed="max" />
  <vehicle id="e5.750000" type="highway_vehicles" route="highway_east" depart="5.750000" departlane="random" departspeed="max" />
  <vehicle id="w5.750000" type="highway_vehicles" route="highway_west" depart="5.750000" departlane="random" departspeed="max" />
  <vehicle id="e6.000000" type="highway_vehicles" route="highway_east" depart="6.000000" departlane="random" departspeed="max" />
  <vehicle id="w6.000000" type="highway_vehicles" route="highway_west" depart="6.000000" departlane="random" departspeed="max" />
  <vehicle id="e6.250000" type="highway_vehicles" route="highway_east" depart="6.250000" departlane="random" departspeed="max" />
  <vehicle id="w6.250000" type="highway_vehicles" route="highway_west" depart="6.250000" departlane="random" departspeed="max" />
  <vehicle id="e6.500000" type="highway_vehicles" route="highway_east" depart="6.500000" departlane="random" departspeed="max" />
  <vehicle id="w6.500000" type="highway_vehicles" route="highway_west" depart="6.500000" departlane="random" departspeed="max" />
  <vehicle id="e6.750000" type="highway_vehicles" route="highway_east" depart="6.750000" departlane="random" departspeed="max" />
  <vehicle id="w6.750000" type="highway_vehicles" route="highway_west" depart="6.750000" departlane="random" departspeed="max" />
  <vehicle id="e7.000000" type="highway_vehicles" route="highway_east" depart="7.000000" departlane="random" departspeed="max" />
  <vehicle id="w7.000000" type="highway_vehicles" route="highway_west" depart="7.000000" departlane="random" departspeed="max" />
  <vehicle id="e7.250000" type="highway_vehicles" route="highway_east" depart="7.250000" departlane="random" departspeed="max" />
  <vehicle id="w7.250000" type="highway_vehicles" route="highway_west" depart="7.250000" departlane="random" departspeed="max" />
  <vehicle id="e7.500000" type="highway_vehicles" route="highway_east" depart="7.500000" departlane="random" departspeed="max" />
  <vehicle id="w7.500000" type="highway_vehicles" route="highway_west" depart="7.500000" departlane="random" departspeed="max" />
  <vehicle id="e7.750000" type="highway_vehicles" route="highway_east" depart="7.750000" departlane="random" departspeed="max" />
  <vehicle id="w7.750000" type="highway_vehicles" route="highway_west" depart="7.750000" departlane="random" departspeed="max" />
  <vehicle id="e8.000000" type="highway_vehicles" route="highway_east" depart="8.000000" departlane="random" departspeed="max" />
  <vehicle id="w8.000000" type="highway_vehicles" route="highway_west" depart="8.000000" departlane="random" departspeed="max" />
  <vehicle id="e8.250000" type="highway_vehicles" route="highway_east" depart="8.250000" departlane="random" departspeed="max" />
  <vehicle id="w8.250000" type="highway_vehicles" route="highway_west" depart="8.250000" departlane="random" departspeed="max" />
  <vehicle id="e8.500000" type="highway_vehicles" route="highway_east" depart="8.500000" departlane="random" departspeed="max" />
  <vehicle id="w8.500000" type="highway_vehicles" route="highway_west" depart="8.500000" departlane="random" departspeed="max" />
  <vehicle id="e8.750000" type="highway_vehicles" route="highway_east" depart="8.750000" departlane="random" departspeed="max" />
  <vehicle id="w8.750000" type="highway_vehicles" route="highway_west" depart="8.750000" departlane="random" departspeed="max" />
  <vehicle id="e9.000000" type="highway_vehicles" route="highway_east" depart="9.000000" departlane="random" departspeed="max" />
  <vehicle id="w9.000000" type="highway_vehicles" route="highway_west" depart="9.000000" departlane="random" departspeed="max" />
  <vehicle id="e9.250000" type="highway_vehicles" route="highway_east" depart="9.250000" departlane="random" departspeed="max" />
  <vehicle id="w9.250000" type="highway_vehicles" route="highway_west" depart="9.250000" departlane="random" departspeed="max" />
  <vehicle id="e9.500000" type="highway_vehicles" route="highway_east" depart="9.500000" departlane="random" departspeed="max" />
  <vehicle id="w9.500000" type="highway_vehicles" route="highway_west" depart="9.500000" departlane="random" departspeed="max" />
  <vehicle id="e9.750000" type="highway_vehicles" route="highway_east" depart="9.750000" departlane="random" departspeed="max" />
  <vehicle id="w9.750000" type="highway_vehicles" route="highway_west" depart="9.750000" departlane="random" departspeed="max" />
  <vehicle id="e10.000000" type="highway_vehicles" route="highway_east" depart="10.000000" departlane="random" departspeed="max" />
  <vehicle id="w10.000000" type="highway_vehicles" route="highway_west" depart="10.000000" departlane="random" departspeed="max" />
  <vehicle id="e10.250000" type="highway_vehicles" route="highway_east" depart="10.250000" departlane="random" departspeed="max" />
  <vehicle id="w10.250000" type="highway_vehicles" route="highway_west" depart="10.250000" departlane="random" departspeed="max" />
  <vehicle id="e10.500000" type="highway_vehicles" route="highway_east" depart="10.500000" departlane="random" departspeed="max" />
  <vehicle id="w10.500000" type="highway_vehicles" route="highway_west" depart="10.500000" departlane="random" departspeed="max" />
  <vehicle id="e10.750000" type="highway_vehicles" route="highway_east" depart="10.750000" departlane="random" departspeed="max" />
  <vehicle id="w10.750000" type="highway_vehicles" route="highway_west" depart="10.750000" departlane="random" departspeed="max" />
  <vehicle id="e11.000000" type="highway_vehicles" route="highway_east" depart="11.000000" departlane="random" departspeed="max" />
  <vehicle id="w11.000000" type="highway_vehicles" route="highway_west" depart="11.000000" departlane="random" departspeed="max" />
  <vehicle id="e11.250000" type="highway_vehicles" route="highway_east" depart="11.250000" departlane="random" departspeed="max" />
  <vehicle id="w11.250000" type="highway_vehicles" route="highway_west" depart="11.250000" departlane="random" departspeed="max" />
  <vehicle id="e11.500000" type="highway_vehicles" route="highway_east" depart="11.500000" departlane="random" departspeed="max" />
  <vehicle id="w11.500000" type="highway_vehicles" route="highway_west" depart="11.500000" departlane="random" departspeed="max" />
  <vehicle id="e11.750000" type="highway_vehicles" route="highway_east" depart="11.750000" departlane="random" departspeed="max" />
  <vehicle id="w11.750000" type="highway_vehicles" route="highway_west" depart="11.750000" departlane="random" departspeed="max" />
  <vehicle id="e12.000000" type="highway_vehicles" route="highway_east" depart="12.000000" departlane="random" departspeed="max" />
  <vehicle id="w12.000000" type="highway_vehicles" route="highway_west" depart="12.000000" departlane="random" departspeed="max" />
  <vehicle id="e12.250000" type="highway_vehicles" route="highway_east" depart="12.250000" departlane="random" departspeed="max" />
  <vehicle id="w12.250000" type="highway_vehicles" route="highway_west" depart="12.250000" departlane="random" departspeed="max" />
  <vehicle id="e12.500000" type="highway_vehicles" route="highway_east" depart="12.500000" departlane="random" departspeed="max" />
  <vehicle id="w12.500000" type="highway_vehicles" route="highway_west" depart="12.500000" departlane="random" departspeed="max" />
  <vehicle id="e12.750000" type="highway_vehicles" route="highway_east" depart="12.750000" departlane="random" departspeed="max" />
  <vehicle id="w12.750000" type="highway_vehicles" route="highway_west" depart="12.750000" departlane="random" departspeed="max" />
  <vehicle id="e13.000000" type="highway_vehicles" route="highway_east" depart="13.000000" departlane="random" departspeed="max" />
  <vehicle id="w13.000000" type="highway_vehicles" route="highway_west" depart="13.000000" departlane="random" departspeed="max" />
  <vehicle id="e13.250000" type="highway_vehicles" route="highway_east" depart="13.250000" departlane="random" departspeed="max" />
  <vehicle id="w13.250000" type="highway_vehicles" route="highway_west" depart="13.250000" departlane="random" departspeed="max" />
  <vehicle id="e13.500000" type="highway_vehicles" route="highway_east" depart="13.500000" departlane="random" departspeed="max" />
  <vehicle id="w13.500000" type="highway_vehicles" route="highway_west" depart="13.500000" departlane="random" departspeed="max" />
  <vehicle id="e13.750000" type="highway_vehicles" route="highway_east" depart="13.750000" departlane="random" departspeed="max" />
  <vehicle id="w13.750000" type="highway_vehicles" route="highway_west" depart="13.750000" departlane="random" departspeed="max" />
  <vehicle id="e14.000000" type="highway_vehicles" route="highway_east" depart="14.000000" departlane="random" departspeed="max" />
  <vehicle id="w14.000000" type="highway_vehicles" route="highway_west" depart="14.000000" departlane="random" departspeed="max" />
  <vehicle id="e14.250000" type="highway_vehicles" route="highway_east" depart="14.250000" departlane="random" departspeed="max" />
  <vehicle id="w14.250000" type="highway_vehicles" route="highway_west" depart="14.250000" departlane="random" departspeed="max" />
  <vehicle id="e14.500000" type="highway_vehicles" route="highway_east" depart="14.500000" departlane="random" departspeed="max" />
  <vehicle id="w14.500000" type="highway_vehicles" route="highway_west" depart="14.500000" departlane="random" departspeed="max" />
  <vehicle id="e14.750000" type="highway_vehicles" route="highway_east" depart="14.750000" departlane="random" departspeed="max" />
  <vehicle id="w14.750000" type="highway_vehicles" route="highway_west" depart="14.750000" departlane="random" departspeed="max" />
  <vehicle id="e15.000000" type="highway_vehicles" route="highway_east" depart="15.000000" departlane="random" departspeed="max" />
  <vehicle id="w15.000000" type="highway_vehicles" route="highway_west" depart="15.000000" departlane="random" departspeed="max" />
  <vehicle id="e15.250000" type="highway_vehicles" route="highway_east" depart="15.250000" departlane="random" departspeed="max" />
  <vehicle id="w15.250000" type="highway_vehicles" route="highway_west" depart="15.250000" departlane="random" departspeed="max" />
  <vehicle id="e15.500000" type="highway_vehicles" route="highway_east" depart="15.500000" departlane="random" departspeed="max" />
  <vehicle id="w15.500000" type="highway_vehicles" route="highway_west" depart="15.500000" departlane="random" departspeed="max" />
  <vehicle id="e15.750000" type="highway_vehicles" route="highway_east" depart="15.750000" departlane="random" departspeed="max" />
  <vehicle id="w15.750000" type="highway_vehicles" route="highway_west" depart="15.750000" departlane="random" departspeed="max" />
  <vehicle id="e16.000000" type="highway_vehicles" route="highway_east" depart="16.000000" departlane="random" departspeed="max" />
  <vehicle id="w16.000000" type="highway_vehicles" route="highway_west" depart="16.000000" departlane="random" departspeed="max" />
  <vehicle id="e16.250000" type="highway_vehicles" route="highway_east" depart="16.250000" departlane="random" departspeed="max" />
  <vehicle id="w16.250000" type="highway_vehicles" route="highway_west" depart="16.250000" departlane="random" departspeed="max" />
  <vehicle id="e16.500000" type="highway_vehicles" route="highway_east" depart="16.500000" departlane="random" departspeed="max" />
  <vehicle id="w16.500000" type="highway_vehicles" route="highway_west" depart="16.500000" departlane="random" departspeed="max" />
  <vehicle id="e16.750000" type="highway_vehicles" route="highway_east" depart="16.750000" departlane="random" departspeed="max" />
  <vehicle id="w16.750000" type="highway_vehicles" route="highway_west" depart="16.750000" departlane="random" departspeed="max" />
  <vehicle id="e17.000000" type="highway_vehicles" route="highway_east" depart="17.000000" departlane="random" departspeed="max" />
  <vehicle id="w17.000000" type="highway_vehicles" route="highway_west" depart="17.000000" departlane="random" departspeed="max" />
  <vehicle id="e17.250000" type="highway_vehicles" route="highway_east" depart="17.250000" departlane="random" departspeed="max" />
  <vehicle id="w17.250000" type="highway_vehicles" route="highway_west" depart="17.250000" departlane="random" departspeed="max" />
  <vehicle id="e17.500000" type="highway_vehicles" route="highway_east" depart="17.500000" departlane="random" departspeed="max" />
  <vehicle id="w17.500000" type="highway_vehicles" route="highway_west" depart="17.500000" departlane="random" departspeed="max" />
  <vehicle id="e17.750000" type="highway_vehicles" route="highway_east" depart="17.750000" departlane="random" departspeed="max" />
  <vehicle id="w17.750000" type="highway_vehicles" route="highway_west" depart="17.750000" departlane="random" departspeed="max" />
  <vehicle id="e18.000000" type="highway_vehicles" route="highway_east" depart="18.000000" departlane="random" departspeed="max" />
  <vehicle id="w18.000000" type="highway_vehicles" route="highway_west" depart="18.000000" departlane="random" departspeed="max" />
  <vehicle id="e18.250000" type="highway_vehicles" route="highway_east" depart="18.250000" departlane="random" departspeed="max" />
  <vehicle id="w18.250000" type="highway_vehicles" route="highway_west" depart="18.250000" departlane="random" departspeed="max" />
  <vehicle id="e18.500000" type="highway_vehicles" route="highway_east" depart="18.500000" departlane="random" departspeed="max" />
  <vehicle id="w18.500000" type="highway_vehicles" route="highway_west" depart="18.500000" departlane="random" departspeed="max" />
  <vehicle id="e18.750000" type="highway_vehicles" route="highway_east" depart="18.750000" departlane="random" departspeed="max" />
  <vehicle id="w18.750000" type="highway_vehicles" route="highway_west" depart="18.750000" departlane="random" departspeed="max" />
  <vehicle id="e19.000000" type="highway_vehicles" route="highway_east" depart="19.000000" departlane="random" departspeed="max" />
  <vehicle id="w19.000000" type="highway_vehicles" route="highway_west" depart="19.000000" departlane="random" departspeed="max" />
  <vehicle id="e19.250000" type="highway_vehicles" route="highway_east" depart="19.250000" departlane="random" departspeed="max" />
  <vehicle id="w19.250000" type="highway_vehicles" route="highway_west" depart="19.250000" departlane="random" departspeed="max" />
  <vehicle id="e19.500000" type="highway_vehicles" route="highway_east" depart="19.500000" departlane="random" departspeed="max" />
  <vehicle id="w19.500000" type="highway_vehicles" route="highway_west" depart="19.500000" departlane="random" departspeed="max" />
  <vehicle id="e19.750000" type="highway_vehicles" route="highway_east" depart="19.750000" departlane="random" departspeed="max" />
  <vehicle id="w19.750000" type="highway_vehicles" route="highway_west" depart="19.750000" departlane="random" departspeed="max" />
  <vehicle id="e20.000000" type="highway_vehicles" route="highway_east" depart="20.000000" departlane="random" departspeed="max" />
  <vehicle id="w20.000000" type="highway_vehicles" route="highway_west" depart="20.000000" departlane="random" departspeed="max" />
  <vehicle id="e20.250000" type="highway_vehicles" route="highway_east" depart="20.250000" departlane="random" departspeed="max" />
  <vehicle id="w20.250000" type="highway_vehicles" route="highway_west" depart="20.250000" departlane="random" departspeed="max" />
  <vehicle id="e20.500000" type="highway_vehicles" route="highway_east" depart="20.500000" departlane="random" departspeed="max" />
  <vehicle id="w20.500000" type="highway_vehicles" route="highway_west" depart="20.500000" departlane="random" departspeed="max" />
  <vehicle id="e20.750000" type="highway_vehicles" route="highway_east" depart="20.750000" departlane="random" departspeed="max" />
  <vehicle id="w20.750000" type="highway_vehicles" route="highway_west" depart="20.750000" departlane="random" departspeed="max" />
  <vehicle id="e21.000000" type="highway_vehicles" route="highway_east" depart="21.000000" departlane="random" departspeed="max" />
  <vehicle id="w21.000000" type="highway_vehicles" route="highway_west" depart="21.000000" departlane="random" departspeed="max" />
  <vehicle id="e21.250000" type="highway_vehicles" route="highway_east" depart="21.250000" departlane="random" departspeed="max" />
  <vehicle id="w21.250000" type="highway_vehicles" route="highway_west" depart="21.250000" departlane="random" departspeed="max" />
  <vehicle id="e21.500000" type="highway_vehicles" route="highway_east" depart="21.500000" departlane="random" departspeed="max" />
  <vehicle id="w21.500000" type="highway_vehicles" route="highway_west" depart="21.500000" departlane="random" departspeed="max" />
  <vehicle id="e21.750000" type="highway_vehicles" route="highway_east" depart="21.750000" departlane="random" departspeed="max" />
  <vehicle id="w21.750000" type="highway_vehicles" route="highway_west" depart="21.750000" departlane="random" departspeed="max" />
  <vehicle id="e22.000000" type="highway_vehicles" route="highway_east" depart="22.000000" departlane="random" departspeed="max" />
  <vehicle id="w22.000000" type="highway_vehicles" route="highway_west" depart="22.000000" departlane="random" departspeed="max" />
  <vehicle id="e22.250000" type="highway_vehicles" route="highway_east" depart="22.250000" departlane="random" departspeed="max" />
  <vehicle id="w22.250000" type="highway_vehicles" route="highway_west" depart="22.250000" departlane="random" departspeed="max" />
  <vehicle id="e22.500000" type="highway_vehicles" route="highway_east" depart="22.500000" departlane="random" departspeed="max" />
  <vehicle id="w22.500000" type="highway_vehicles" route="highway_west" depart="22.500000" departlane="random" departspeed="max" />
  <vehicle id="e22.750000" type="highway_vehicles" route="highway_east" depart="22.750000" departlane="random" departspeed="max" />
  <vehicle id="w22.750000" type="highway_vehicles" route="highway_west" depart="22.750000" departlane="random" departspeed="max" />
  <vehicle id="e23.000000" type="highway_vehicles" route="highway_east" depart="23.000000" departlane="random" departspeed="max" />
  <vehicle id="w23.000000" type="highway_vehicles" route="highway_west" depart="23.000000" departlane="random" departspeed="max" />
  <vehicle id="e23.250000" type="highway_vehicles" route="highway_east" depart="23.250000" departlane="random" departspeed="max" />
  <vehicle id="w23.250000" type="highway_vehicles" route="highway_west" depart="23.250000" departlane="random" departspeed="max" />
  <vehicle id="e23.500000" type="highway_vehicles" route="highway_east" depart="23.500000" departlane="random" departspeed="max" />
  <vehicle id="w23.500000" type="highway_vehicles" route="highway_west" depart="23.500000" departlane="random" departspeed="max" />
  <vehicle id="e23.750000" type="highway_vehicles" route="highway_east" depart="23.750000" departlane="random" departspeed="max" />
  <vehicle id="w23.750000" type="highway_vehicles" route="highway_west" depart="23.750000" departlane="random" departspeed="max" />
  <vehicle id="e24.000000" type="highway_vehicles" route="highway_east" depart="24.000000" departlane="random" departspeed="max" />
  <vehicle id="w24.000000" type="highway_vehicles" route="highway_west" depart="24.000000" departlane="random" departspeed="max" />
  <vehicle id="e24.250000" type="highway_vehicles" route="highway_east" depart="24.250000" departlane="random" departspeed="max" />
  <vehicle id="w24.250000" type="highway_vehicles" route="highway_west" depart="24.250000" departlane="random" departspeed="max" />
  <vehicle id="e24.500000" type="highway_vehicles" route="highway_east" depart="24.500000" departlane="random" departspeed="max" />
  <vehicle id="w24.500000" type="highway_vehicles" route="highway_west" depart="24.500000" departlane="random" departspeed="max" />
  <vehicle id="e24.750000" type="highway_vehicles" route="highway_east" depart="24.750000" departlane="random" departspeed="max" />
  <vehicle id="w24.750000" type="highway_vehicles" route="highway_west" depart="24.750000" departlane="random" departspeed="max" />
  <vehicle id="e25.000000" type="highway_vehicles" route="highway_east" depart="25.000000" departlane="random" departspeed="max" />
  <vehicle id="w25.000000" type="highway_vehicles" route="highway_west" depart="25.000000" departlane="random" departspeed="max" />
  <vehicle id="e25.250000" type="highway_vehicles" route="highway_east" depart="25.250000" departlane="random" departspeed="max" />
  <vehicle id="w25.250000" type="highway_vehicles" route="highway_west" depart="25.250000" departlane="random" departspeed="max" />
  <vehicle id="e25.500000" type="highway_vehicles" route="highway_east" depart="25.500000" departlane="random" departspeed="max" />
  <vehicle id="w25.500000" type="highway_vehicles" route="highway_west" depart="25.500000" departlane="random" departspeed="max" />
  <vehicle id="e25.750000" type="highway_vehicles" route="highway_east" depart="25.750000" departlane="random" departspeed="max" />
  <vehicle id="w25.750000" type="highway_vehicles" route="highway_west" depart="25.750000" departlane="random" departspeed="max" />
  <vehicle id="e26.000000" type="highway_vehicles" route="highway_east" depart="26.000000" departlane="random" departspeed="max" />
  <vehicle id="w26.000000" type="highway_vehicles" route="highway_west" depart="26.000000" departlane="random" departspeed="max" />
  <vehicle id="e26.250000" type="highway_vehicles" route="highway_east" depart="26.250000" departlane="random" departspeed="max" />
  <vehicle id="w26.250000" type="highway_vehicles" route="highway_west" depart="26.250000" departlane="random" departspeed="max" />
  <vehicle id="e26.500000" type="highway_vehicles" route="highway_east" depart="26.500000" departlane="random" departspeed="max" />
  <vehicle id="w26.500000" type="highway_vehicles" route="highway_west" depart="26.500000" departlane="random" departspeed="max" />
  <vehicle id="e26.750000" type="highway_vehicles" route="highway_east" depart="26.750000" departlane="random" departspeed="max" />
  <vehicle id="w26.750000" type="highway_vehicles" route="highway_west" depart="26.750000" departlane="random" departspeed="max" />
  <vehicle id="e27.000000" type="highway_vehicles" route="highway_east" depart="27.000000" departlane="random" departspeed="max" />
  <vehicle id="w27.000000" type="highway_vehicles" route="highway_west" depart="27.000000" departlane="random" departspeed="max" />
  <vehicle id="e27.250000" type="highway_vehicles" route="highway_east" depart="27.250000" departlane="random" departspeed="max" />
  <vehicle id="w27.250000" type="highway_vehicles" route="highway_west" depart="27.250000" departlane="random" departspeed="max" />
  <vehicle id="e27.500000" type="highway_vehicles" route="highway_east" depart="27.500000" departlane="random" departspeed="max" />
  <vehicle id="w27.500000" type="highway_vehicles" route="highway_west" depart="27.500000" departlane="random" departspeed="max" />
  <vehicle id="e27.750000" type="highway_vehicles" route="highway_east" depart="27.750000" departlane="random" departspeed="max" />
  <vehicle id="w27.750000" type="highway_vehicles" route="highway_west" depart="27.750000" departlane="random" departspeed="max" />
  <vehicle id="e28.000000" type="highway_vehicles" route="highway_east" depart="28.000000" departlane="random" departspeed="max" />
  <vehicle id="w28.000000" type="highway_vehicles" route="highway_west" depart="28.000000" departlane="random" departspeed="max" />
  <vehicle id="e28.250000" type="highway_vehicles" route="highway_east" depart="28.250000" departlane="random" departspeed="max" />
  <vehicle id="w28.250000" type="highway_vehicles" route="highway_west" depart="28.250000" departlane="random" departspeed="max" />