<routes>
  <vehicle id="e0.000000" type="highway_vehicles" route="highway_east" depart="0.000000" departlane="random" departspeed="max" />
  <vehicle id="w0.000000" type="highway_vehicles" route="highway_west" depart="0.000000" departlane="random" departspeed="max" />
  <vehicle id="e1.000000" type="highway_vehicles" route="highway_east" depart="1.000000" departlane="random" departspeed="max" />
  <vehicle id="w1.000000" type="highway_vehicles" route="highway_west" depart="1.000000" departlane="random" departspeed="max" />
  <vehicle id="e2.000000" type="highway_vehicles" route="highway_east" depart="2.000000" departlane="random" departspeed="max" />
  <vehicle id="w2.000000" type="highway_vehicles" route="highway_west" depart="2.000000" departlane="random" departspeed="max" />
  <vehicle id="e3.000000" type="highway_vehicles" route="highway_east" depart="3.000000" departlane="random" departspeed="max" />
  <vehicle id="w3.000000" type="highway_vehicles" route="highway_west" depart="3.000000" departlane="random" departspeed="max" />
  <vehicle id="e4.000000" type="highway_vehicles" route="highway_east" depart="4.000000" departlane="random" departspeed="max" />
  <vehicle id="w4.000000" type="highway_vehicles" route="highway_west" depart="4.000000" departlane="random" departspeed="max" />
  <vehicle id="e5.000000" type="highway_vehicles" route="highway_east" depart="5.000000" departlane="random" departspeed="max" />
  <vehicle id="w5.000000" type="highway_vehicles" route="highway_west" depart="5.000000" departlane="random" departspeed="max" />
  <vehicle id="e6.000000" type="highway_vehicles" route="highway_east" depart="6.000000" departlane="random" departspeed="max" />
  <vehicle id="w6.000000" type="highway_vehicles" route="highway_west" depart="6.000000" departlane="random" departspeed="max" />
  <vehicle id="e7.000000" type="highway_vehicles" route="highway_east" depart="7.000000" departlane="random" departspeed="max" />
  <vehicle id="w7.000000" type="highway_vehicles" route="highway_west" depart="7.000000" departlane="random" departspeed="max" />
  <vehicle id="e8.000000" type="highway_vehicles" route="highway_east" depart="8.000000" departlane="random" departspeed="max" />
  <vehicle id="w8.000000" type="highway_vehicles" route="highway_west" depart="8.000000" departlane="random" departspeed="max" />
  <vehicle id="e9.000000" type="highway_vehicles" route="highway_east" depart="9.000000" departlane="random" departspeed="max" />
  <vehicle id="w9.000000" type="highway_vehicles" route="highway_west" depart="9.000000" departlane="random" departspeed="max" />
  <vehicle id="e10.000000" type="highway_vehicles" route="highway_east" depart="10.000000" departlane="random" departspeed="max" />
  <vehicle id="w10.000000" type="highway_vehicles" route="highway_west" depart="10.000000" departlane="random" departspeed="max" />
  <vehicle id="e11.000000" type="highway_vehicles" route="highway_east" depart="11.000000" departlane="random" departspeed="max" />
  <vehicle id="w11.000000" type="highway_vehicles" route="highway_west" depart="11.000000" departlane="random" departspeed="max" />
  <vehicle id="e12.000000" type="highway_vehicles" route="highway_east" depart="12.000000" departlane="random" departspeed="max" />
  <vehicle id="w12.000000" type="highway_vehicles" route="highway_west" depart="12.000000" departlane="random" departspeed="max" />
  <vehicle id="e13.000000" type="highway_vehicles" route="highway_east" depart="13.000000" departlane="random" departspeed="max" />
  <vehicle id="w13.000000" type="highway_vehicles" route="highway_west" depart="13.000000" departlane="random" departspeed="max" />
  <vehicle id="e14.000000" type="highway_vehicles" route="highway_east" depart="14.000000" departlane="random" departspeed="max" />
  <vehicle id="w14.000000" type="highway_vehicles" route="highway_west" depart="14.000000" departlane="random" departspeed="max" />
  <vehicle id="e15.000000" type="highway_vehicles" route="highway_east" depart="15.000000" departlane="random" departspeed="max" />
  <vehicle id="w15.000000" type="highway_vehicles" route="highway_west" depart="15.000000" departlane="random" departspeed="max" />
  <vehicle id="e16.000000" type="highway_vehicles" route="highway_east" depart="16.000000" departlane="random" departspeed="max" />
  <vehicle id="w16.000000" type="highway_vehicles" route="highway_west" depart="16.000000" departlane="random" departspeed="max" />
  <vehicle id="e17.000000" type="highway_vehicles" route="highway_east" depart="17.000000" departlane="random" departspeed="max" />
  <vehicle id="w17.000000" type="highway_vehicles" route="highway_west" depart="17.000000" departlane="random" departspeed="max" />
  <vehicle id="e18.000000" type="highway_vehicles" route="highway_east" depart="18.000000" departlane="random" departspeed="max" />
  <vehicle id="w18.000000" type="highway_vehicles" route="highway_west" depart="18.000000" departlane="random" departspeed="max" />
  <vehicle id="e19.000000" type="highway_vehicles" route="highway_east" depart="19.000000" departlane="random" departspeed="max" />
  <vehicle id="w19.000000" type="highway_vehicles" route="highway_west" depart="19.000000" departlane="random" departspeed="max" />
  <vehicle id="e20.000000" type="highway_vehicles" route="highway_east" depart="20.000000" departlane="random" departspeed="max" />
  <vehicle id="w20.000000" type="highway_vehicles" route="highway_west" depart="20.000000" departlane="random" departspeed="max" />
  <vehicle id="e21.000000" type="highway_vehicles" route="highway_east" depart="21.000000" departlane="random" departspeed="max" />
  <vehicle id="w21.000000" type="highway_vehicles" route="highway_west" depart="21.000000" departlane="random" departspeed="max" />
  <vehicle id="e22.000000" type="highway_vehicles" route="highway_east" depart="22.000000" departlane="random" departspeed="max" />
  <vehicle id="w22.000000" type="highway_vehicles" route="highway_west" depart="22.000000" departlane="random" departspeed="max" />
  <vehicle id="e23.000000" type="highway_vehicles" route="highway_east" depart="23.000000" departlane="random" departspeed="max" />
  <vehicle id="w23.000000" type="highway_vehicles" route="highway_west" depart="23.000000" departlane="random" departspeed="max" />
  <vehicle id="e24.000000" type="highway_vehicles" route="highway_east" depart="24.000000" departlane="random" departspeed="max" />
  <vehicle id="w24.000000" type="highway_vehicles" route="highway_west" depart="24.000000" departlane="random" departspeed="max" />
  <vehicle id="e25.000000" type="highway_vehicles" route="highway_east" depart="25.000000" departlane="random" departspeed="max" />
  <vehicle id="w25.000000" type="highway_vehicles" route="highway_west" depart="25.000000" departlane="random" departspeed="max" />
  <vehicle id="e26.000000" type="highway_vehicles" route="highway_east" depart="26.000000" departlane="random" departspeed="max" />
  <vehicle id="w26.000000" type="highway_vehicles" route="highway_west" depart="26.000000" departlane="random" departspeed="max" />
  <vehicle id="e27.000000" type="highway_vehicles" route="highway_east" depart="27.000000" departlane="random" departspeed="max" />
  <vehicle id="w27.000000" type="highway_vehicles" route="highway_west" depart="27.000000" departlane="random" departspeed="max" />
  <vehicle id="e28.000000" type="highway_vehicles" route="highway_east" depart="28.000000" departlane="random" departspeed="max" />
  <vehicle id="w28.000000" type="highway_vehicles" route="highway_west" depart="28.000000" departlane="random" departspeed="max" />
  <vehicle id="e29.000000" type="highway_vehicles" route="highway_east" depart="29.000000" departlane="random" departspeed="max" />
  <vehicle id="w29.000000" type="highway_vehicles" route="highway_west" depart="29.000000" departlane="random" departspeed="max" />
  <vehicle id="e30.000000" type="highway_vehicles" route="highway_east" depart="30.000000" departlane="random" departspeed="max" />
  <vehicle id="w30.000000" type="highway_vehicles" route="highway_west" depart="30.000000" departlane="random" departspeed="max" />
  <vehicle id="e31.000000" type="highway_vehicles" route="highway_east" depart="31.000000" departlane="random" departspeed="max" />
  <vehicle id="w31.000000" type="highway_vehicles" route="highway_west" depart="31.000000" departlane="random" departspeed="max" />
  <vehicle id="e32.000000" type="highway_vehicles" route="highway_east" depart="32.000000" departlane="random" departspeed="max" />
  <vehicle id="w32.000000" type="highway_vehicles" route="highway_west" depart="32.000000" departlane="random" departspeed="max" />
  <vehicle id="e33.000000" type="highway_vehicles" route="highway_east" depart="33.000000" departlane="random" departspeed="max" />
  <vehicle id="w33.000000" type="highway_vehicles" route="highway_west" depart="33.000000" departlane="random" departspeed="max" />
  <vehicle id="e34.000000" type="highway_vehicles" route="highway_east" depart="34.000000" departlane="random" departspeed="max" />
  <vehicle id="w34.000000" type="highway_vehicles" route="highway_west" depart="34.000000" departlane="random" departspeed="max" />
  <vehicle id="e35.000000" type="highway_vehicles" route="highway_east" depart="35.000000" departlane="random" departspeed="max" />
  <vehicle id="w35.000000" type="highway_vehicles" route="highway_west" depart="35.000000" departlane="random" departspeed="max" />
  <vehicle id="e36.000000" type="highway_vehicles" route="highway_east" depart="36.000000" departlane="random" departspeed="max" />
  <vehicle id="w36.000000" type="highway_vehicles" route="highway_west" depart="36.000000" departlane="random" departspeed="max" />
  <vehicle id="e37.000000" type="highway_vehicles" route="highway_east" depart="37.000000" departlane="random" departspeed="max" />
  <vehicle id="w37.000000" type="highway_vehicles" route="highway_west" depart="37.000000" departlane="random" departspeed="max" />
  <vehicle id="e38.000000" type="highway_vehicles" route="highway_east" depart="38.000000" departlane="random" departspeed="max" />
  <vehicle id="w38.000000" type="highway_vehicles" route="highway_west" depart="38.000000" departlane="random" departspeed="max" />
  <vehicle id="e39.000000" type="highway_vehicles" route="highway_east" depart="39.000000" departlane="random" departspeed="max" />
  <vehicle id="w39.000000" type="highway_vehicles" route="highway_west" depart="39.000000" departlane="random" departspeed="max" />
  <vehicle id="e40.000000" type="highway_vehicles" route="highway_east" depart="40.000000" departlane="random" departspeed="max" />
  <vehicle id="w40.000000" type="highway_vehicles" route="highway_west" depart="40.000000" departlane="random" departspeed="max" />
  <vehicle id="e41.000000" type="highway_vehicles" route="highway_east" depart="41.000000" departlane="random" departspeed="max" />
  <vehicle id="w41.000000" type="highway_vehicles" route="highway_west" depart="41.000000" departlane="random" departspeed="max" />
  <vehicle id="e42.000000" type="highway_vehicles" route="highway_east" depart="42.000000" departlane="random" departspeed="max" />
  <vehicle id="w42.000000" type="highway_vehicles" route="highway_west" depart="42.000000" departlane="random" departspeed="max" />
  <vehicle id="e43.000000" type="highway_vehicles" route="highway_east" depart="43.000000" departlane="random" departspeed="max" />
  <vehicle id="w43.000000" type="highway_vehicles" route="highway_west" depart="43.000000" departlane="random" departspeed="max" />
  <vehicle id="e44.000000" type="highway_vehicles" route="highway_east" depart="44.000000" departlane="random" departspeed="max" />
  <vehicle id="w44.000000" type="highway_vehicles" route="highway_west" depart="44.000000" departlane="random" departspeed="max" />
  <vehicle id="e45.000000" type="highway_vehicles" route="highway_east" depart="45.000000" departlane="random" departspeed="max" />
  <vehicle id="w45.000000" type="highway_vehicles" route="highway_west" depart="45.000000" departlane="random" departspeed="max" />
  <vehicle id="e46.000000" type="highway_vehicles" route="highway_east" depart="46.000000" departlane="random" departspeed="max" />
  <vehicle id="w46.000000" type="highway_vehicles" route="highway_west" depart="46.000000" departlane="random" departspeed="max" />
  <vehicle id="e47.000000" type="highway_vehicles" route="highway_east" depart="47.000000" departlane="random" departspeed="max" />
  <vehicle id="w47.000000" type="highway_vehicles" route="highway_west" depart="47.000000" departlane="random" departspeed="max" />
  <vehicle id="e48.000000" type="highway_vehicles" route="highway_east" depart="48.000000" departlane="random" departspeed="max" />
  <vehicle id="w48.000000" type="highway_vehicles" route="highway_west" depart="48.000000" departlane="random" departspeed="max" />
  <vehicle id="e49.000000" type="highway_vehicles" route="highway_east" depart="49.000000" departlane="random" departspeed="max" />
  <vehicle id="w49.000000" type="highway_vehicles" route="highway_west" depart="49.000000" departlane="random" departspeed="max" />
  <vehicle id="e50.000000" type="highway_vehicles" route="highway_east" depart="50.000000" departlane="random" departspeed="max" />
  <vehicle id="w50.000000" type="highway_vehicles" route="highway_west" depart="50.000000" departlane="random" departspeed="max" />
  <vehicle id="e51.000000" type="highway_vehicles" route="highway_east" depart="51.000000" departlane="random" departspeed="max" />
  <vehicle id="w51.000000" type="highway_vehicles" route="highway_west" depart="51.000000" departlane="random" departspeed="max" />
  <vehicle id="e52.000000" type="highway_vehicles" route="highway_east" depart="52.000000" departlane="random" departspeed="max" />
  <vehicle id="w52.000000" type="highway_vehicles" route="highway_west" depart="52.000000" departlane="random" departspeed="max" />
  <vehicle id="e53.000000" type="highway_vehicles" route="highway_east" depart="53.000000" departlane="random" departspeed="max" />
  <vehicle id="w53.000000" type="highway_vehicles" route="highway_west" depart="53.000000" departlane="random" departspeed="max" />
  <vehicle id="e54.000000" type="highway_vehicles" route="highway_east" depart="54.000000" departlane="random" departspeed="max" />
  <vehicle id="w54.000000" type="highway_vehicles" route="highway_west" depart="54.000000" departlane="random" departspeed="max" />
  <vehicle id="e55.000000" type="highway_vehicles" route="highway_east" depart="55.000000" departlane="random" departspeed="max" />
  <vehicle id="w55.000000" type="highway_vehicles" route="highway_west" depart="55.000000" departlane="random" departspeed="max" />
  <vehicle id="e56.000000" type="highway_vehicles" route="highway_east" depart="56.000000" departlane="random" departspeed="max" />
  <vehicle id="w56.000000" type="highway_vehicles" route="highway_west" depart="56.000000" departlane="random" departspeed="max" />
  <vehicle id="e57.000000" type="highway_vehicles" route="highway_east" depart="57.000000" departlane="random" departspeed="max" />
  <vehicle id="w57.000000" type="highway_vehicles" route="highway_west" depart="57.000000" departlane="random" departspeed="max" />
  <vehicle id="e58.000000" type="highway_vehicles" route="highway_east" depart="58.000000" departlane="random" departspeed="max" />
  <vehicle id="w58.000000" type="highway_vehicles" route="highway_west" depart="58.000000" departlane="random" departspeed="max" />
  <vehicle id="e59.000000" type="highway_vehicles" route="highway_east" depart="59.000000" departlane="random" departspeed="max" />
  <vehicle id="w59.000000" type="highway_vehicles" route="highway_west" depart="59.000000" departlane="random" departspeed="max" />
  <vehicle id="e60.000000" type="highway_vehicles" route="highway_east" depart="60.000000" departlane="random" departspeed="max" />
  <vehicle id="w60.000000" type="highway_vehicles" route="highway_west" depart="60.000000" departlane="random" departspeed="max" />
  <vehicle id="e61.000000" type="highway_vehicles" route="highway_east" depart="61.000000" departlane="random" departspeed="max" />
  <vehicle id="w61.000000" type="highway_vehicles" route="highway_west" depart="61.000000" departlane="random" departspeed="max" />
  <vehicle id="e62.000000" type="highway_vehicles" route="highway_east" depart="62.000000" departlane="random" departspeed="max" />
  <vehicle id="w62.000000" type="highway_vehicles" route="highway_west" depart="62.000000" departlane="random" departspeed="max" />
  <vehicle id="e63.000000" type="highway_vehicles" route="highway_east" depart="63.000000" departlane="random" departspeed="max" />
  <vehicle id="w63.000000" type="highway_vehicles" route="highway_west" depart="63.000000" departlane="random" departspeed="max" />
  <vehicle id="e64.000000" type="highway_vehicles" route="highway_east" depart="64.000000" departlane="random" departspeed="max" />
  <vehicle id="w64.000000" type="highway_vehicles" route="highway_west" depart="64.000000" departlane="random" departspeed="max" />
  <vehicle id="e65.000000" type="highway_vehicles" route="highway_east" depart="65.000000" departlane="random" departspeed="max" />
  <vehicle id="w65.000000" type="highway_vehicles" route="highway_west" depart="65.000000" departlane="random" departspeed="max" />
  <vehicle id="e66.000000" type="highway_vehicles" route="highway_east" depart="66.000000" departlane="random" departspeed="max" />
  <vehicle id="w66.000000" type="highway_vehicles" route="highway_west" depart="66.000000" departlane="random" departspeed="max" />
  <vehicle id="e67.000000" type="highway_vehicles" route="highway_east" depart="67.000000" departlane="random" departspeed="max" />
  <vehicle id="w67.000000" type="highway_vehicles" route="highway_west" depart="67.000000" departlane="random" departspeed="max" />
  <vehicle id="e68.000000" type="highway_vehicles" route="highway_east" depart="68.000000" departlane="random" departspeed="max" />
  <vehicle id="w68.000000" type="highway_vehicles" route="highway_west" depart="68.000000" departlane="random" departspeed="max" />
  <vehicle id="e69.000000" type="highway_vehicles" route="highway_east" depart="69.000000" departlane="random" departspeed="max" />
  <vehicle id="w69.000000" type="highway_vehicles" route="highway_west" depart="69.000000" departlane="random" departspeed="max" />
  <vehicle id="e70.000000" type="highway_vehicles" route="highway_east" depart="70.000000" departlane="random" departspeed="max" />
  <vehicle id="w70.000000" type="highway_vehicles" route="highway_west" depart="70.000000" departlane="random" departspeed="max" />
  <vehicle id="e71.000000" type="highway_vehicles" route="highway_east" depart="71.000000" departlane="random" departspeed="max" />
  <vehicle id="w71.000000" type="highway_vehicles" route="highway_west" depart="71.000000" departlane="random" departspeed="max" />
  <vehicle id="e72.000000" type="highway_vehicles" route="highway_east" depart="72.000000" departlane="random" departspeed="max" />
  <vehicle id="w72.000000" type="highway_vehicles" route="highway_west" depart="72.000000" departlane="random" departspeed="max" />
  <vehicle id="e73.000000" type="highway_vehicles" route="highway_east" depart="73.000000" departlane="random" departspeed="max" />
  <vehicle id="w73.000000" type="highway_vehicles" route="highway_west" depart="73.000000" departlane="random" departspeed="max" />
  <vehicle id="e74.000000" type="highway_vehicles" route="highway_east" depart="74.000000" departlane="random" departspeed="max" />
  <vehicle id="w74.000000" type="highway_vehicles" route="highway_west" depart="74.000000" departlane="random" departspeed="max" />
  <vehicle id="e75.000000" type="highway_vehicles" route="highway_east" depart="75.000000" departlane="random" departspeed="max" />
  <vehicle id="w75.000000" type="highway_vehicles" route="highway_west" depart="75.000000" departlane="random" departspeed="max" />
  <vehicle id="e76.000000" type="highway_vehicles" route="highway_east" depart="76.000000" departlane="random" departspeed="max" />
  <vehicle id="w76.000000" type="highway_vehicles" route="highway_west" depart="76.000000" departlane="random" departspeed="max" />
  <vehicle id="e77.000000" type="highway_vehicles" route="highway_east" depart="77.000000" departlane="random" departspeed="max" />
  <vehicle id="w77.000000" type="highway_vehicles" route="highway_west" depart="77.000000" departlane="random" departspeed="max" />
  <vehicle id="e78.000000" type="highway_vehicles" route="highway_east" depart="78.000000" departlane="random" departspeed="max" />
  <vehicle id="w78.000000" type="highway_vehicles" route="highway_west" depart="78.000000" departlane="random" departspeed="max" />
  <vehicle id="e79.000000" type="highway_vehicles" route="highway_east" depart="79.000000" departlane="random" departspeed="max" />
  <vehicle id="w79.000000" type="highway_vehicles" route="highway_west" depart="79.000000" departlane="random" departspeed="max" />
  <vehicle id="e80.000000" type="highway_vehicles" route="highway_east" depart="80.000000" departlane="random" departspeed="max" />
  <vehicle id="w80.000000" type="highway_vehicles" route="highway_west" depart="80.000000" departlane="random" departspeed="max" />
  <vehicle id="e81.000000" type="highway_vehicles" route="highway_east" depart="81.000000" departlane="random" departspeed="max" />
  <vehicle id="w81.000000" type="highway_vehicles" route="highway_west" depart="81.000000" departlane="random" departspeed="max" />
  <vehicle id="e82.000000" type="highway_vehicles" route="highway_east" depart="82.000000" departlane="random" departspeed="max" />
  <vehicle id="w82.000000" type="highway_vehicles" route="highway_west" depart="82.000000" departlane="random" departspeed="max" />
  <vehicle id="e83.000000" type="highway_vehicles" route="highway_east" depart="83.000000" departlane="random" departspeed="max" />
  <vehicle id="w83.000000" type="highway_vehicles" route="highway_west" depart="83.000000" departlane="random" departspeed="max" />
  <vehicle id="e84.000000" type="highway_vehicles" route="highway_east" depart="84.000000" departlane="random" departspeed="max" />
  <vehicle id="w84.000000" type="highway_vehicles" route="highway_west" depart="84.000000" departlane="random" departspeed="max" />
  <vehicle id="e85.000000" type="highway_vehicles" route="highway_east" depart="85.000000" departlane="random" departspeed="max" />
  <vehicle id="w85.000000" type="highway_vehicles" route="highway_west" depart="85.000000" departlane="random" departspeed="max" />
  <vehicle id="e86.000000" type="highway_vehicles" route="highway_east" depart="86.000000" departlane="random" departspeed="max" />
  <vehicle id="w86.000000" type="highway_vehicles" route="highway_west" depart="86.000000" departlane="random" departspeed="max" />
  <vehicle id="e87.000000" type="highway_vehicles" route="highway_east" depart="87.000000" departlane="random" departspeed="max" />
  <vehicle id="w87.000000" type="highway_vehicles" route="highway_west" depart="87.000000" departlane="random" departspeed="max" />
  <vehicle id="e88.000000" type="highway_vehicles" route="highway_east" depart="88.000000" departlane="random" departspeed="max" />
  <vehicle id="w88.000000" type="highway_vehicles" route="highway_west" depart="88.000000" departlane="random" departspeed="max" />
  <vehicle id="e89.000000" type="highway_vehicles" route="highway_east" depart="89.000000" departlane="random" departspeed="max" />
  <vehicle id="w89.000000" type="highway_vehicles" route="highway_west" depart="89.000000" departlane="random" departspeed="max" />
  <vehicle id="e90.000000" type="highway_vehicles" route="highway_east" depart="90.000000" departlane="random" departspeed="max" />
  <vehicle id="w90.000000" type="highway_vehicles" route="highway_west" depart="90.000000" departlane="random" departspeed="max" />
  <vehicle id="e91.000000" type="highway_vehicles" route="highway_east" depart="91.000000" departlane="random" departspeed="max" />
  <vehicle id="w91.000000" type="highway_vehicles" route="highway_west" depart="91.000000" departlane="random" departspeed="max" />
  <vehicle id="e92.000000" type="highway_vehicles" route="highway_east" depart="92.000000" departlane="random" departspeed="max" />
  <vehicle id="w92.000000" type="highway_vehicles" route="highway_west" depart="92.000000" departlane="random" departspeed="max" />
  <vehicle id="e93.000000" type="highway_vehicles" route="highway_east" depart="93.000000" departlane="random" departspeed="max" />
  <vehicle id="w93.000000" type="highway_vehicles" route="highway_west" depart="93.000000" departlane="random" departspeed="max" />
  <vehicle id="e94.000000" type="highway_vehicles" route="highway_east" depart="94.000000" departlane="random" departspeed="max" />
  <vehicle id="w94.000000" type="highway_vehicles" route="highway_west" depart="94.000000" departlane="random" departspeed="max" />
  <vehicle id="e95.000000" type="highway_vehicles" route="highway_east" depart="95.000000" departlane="random" departspeed="max" />
  <vehicle id="w95.000000" type="highway_vehicles" route="highway_west" depart="95.000000" departlane="random" departspeed="max" />
  <vehicle id="e96.000000" type="highway_vehicles" route="highway_east" depart="96.000000" departlane="random" departspeed="max" />
  <vehicle id="w96.000000" type="highway_vehicles" route="highway_west" depart="96.000000" departlane="random" departspeed="max" />
  <vehicle id="e97.000000" type="highway_vehicles" route="highway_east" depart="97.000000" departlane="random" departspeed="max" />
  <vehicle id="w97.000000" type="highway_vehicles" route="highway_west" depart="97.000000" departlane="random" departspeed="max" />
  <vehicle id="e98.000000" type="highway_vehicles" route="highway_east" depart="98.000000" departlane="random" departspeed="max" />
  <vehicle id="w98.000000" type="highway_vehicles" route="highway_west" depart="98.000000" departlane="random" departspeed="max" />
  <vehicle id="e99.000000" type="highway_vehicles" route="highway_east" depart="99.000000" departlane="random" departspeed="max" />
  <vehicle id="w99.000000" type="highway_vehicles" route="highway_west" depart="99.000000" departlane="random" departspeed="max" />
  <vehicle id="e100.000000" type="highway_vehicles" route="highway_east" depart="100.000000" departlane="random" departspeed="max" />
  <vehicle id="w100.000000" type="highway_vehicles" route="highway_west" depart="100.000000" departlane="random" departspeed="max" />
  <vehicle id="e101.000000" type="highway_vehicles" route="highway_east" depart="101.000000" departlane="random" departspeed="max" />
  <vehicle id="w101.000000" type="highway_vehicles" route="highway_west" depart="101.000000" departlane="random" departspeed="max" />
  <vehicle id="e102.000000" type="highway_vehicles" route="highway_east" depart="102.000000" departlane="random" departspeed="max" />
  <vehicle id="w102.000000" type="highway_vehicles" route="highway_west" depart="102.000000" departlane="random" departspeed="max" />
  <vehicle id="e103.000000" type="highway_vehicles" route="highway_east" depart="103.000000" departlane="random" departspeed="max" />
  <vehicle id="w103.000000" type="highway_vehicles" route="highway_west" depart="103.000000" departlane="random" departspeed="max" />
  <vehicle id="e104.000000" type="highway_vehicles" route="highway_east" depart="104.000000" departlane="random" departspeed="max" />
  <vehicle id="w104.000000" type="highway_vehicles" route="highway_west" depart="104.000000" departlane="random" departspeed="max" />
  <vehicle id="e105.000000" type="highway_vehicles" route="highway_east" depart="105.000000" departlane="random" departspeed="max" />
  <vehicle id="w105.000000" type="highway_vehicles" route="highway_west" depart="105.000000" departlane="random" departspeed="max" />
  <vehicle id="e106.000000" type="highway_vehicles" route="highway_east" depart="106.000000" departlane="random" departspeed="max" />
  <vehicle id="w106.000000" type="highway_vehicles" route="highway_west" depart="106.000000" departlane="random" departspeed="max" />
  <vehicle id="e107.000000" type="highway_vehicles" route="highway_east" depart="107.000000" departlane="random" departspeed="max" />
  <vehicle id="w107.000000" type="highway_vehicles" route="highway_west" depart="107.000000" departlane="random" departspeed="max" />
  <vehicle id="e108.000000" type="highway_vehicles" route="highway_east" depart="108.000000" departlane="random" departspeed="max" />
  <vehicle id="w108.000000" type="highway_vehicles" route="highway_west" depart="108.000000" departlane="random" departspeed="max" />
  <vehicle id="e109.000000" type="highway_vehicles" route="highway_east" depart="109.000000" departlane="random" departspeed="max" />
  <vehicle id="w109.000000" type="highway_vehicles" route="highway_west" depart="109.000000" departlane="random" departspeed="max" />
  <vehicle id="e110.000000" type="highway_vehicles" route="highway_east" depart="110.000000" departlane="random" departspeed="max" />
  <vehicle id="w110.000000" type="highway_vehicles" route="highway_west" depart="110.000000" departlane="random" departspeed="max" />
  <vehicle id="e111.000000" type="highway_vehicles" route="highway_east" depart="111.000000" departlane="random" departspeed="max" />
  <vehicle id="w111.000000" type="highway_vehicles" route="highway_west" depart="111.000000" departlane="random" departspeed="max" />
  <vehicle id="e112.000000" type="highway_vehicles" route="highway_east" depart="112.000000" departlane="random" departspeed="max" />
  <vehicle id="w112.000000" type="highway_vehicles" route="highway_west" depart="112.000000" departlane="random" departspeed="max" />
  <vehicle id="e113.000000" type="highway_vehicles" route="highway_east" depart="113.000000" departlane="random" departspeed="max" />