<?xml version="1.0"?>

<!-- generated on 05/02/11 15:00:12 by SUMO netconvert Version 0.12.3
<?xml version="1.0" encoding="iso-8859-1"?>

<configuration xmlns:xsi="http://www.w3.org/2001/XMLSchema-instance" xsi:noNamespaceSchemaLocation="http://sumo.sf.net/xsd/netconvertConfiguration.xsd">

    <input>
        <osm-files value="london.osm"/>
    </input>

    <output>
        <output-file value="london.net.xml"/>
    </output>

    <projection>
        <proj.utm value="true"/>
    </projection>

    <tls_building>
        <try-join-tls value="true"/>
    </tls_building>

</configuration>
-->

<net>

   <location netOffset="-479010.13,-4758510.83" convBoundary="0.00,0.00,2432.03,2571.53" origBoundary="-81.257494,42.978985,-81.227632,43.002162" projParameter="+proj=utm +zone=17 +ellps=WGS84 +datum=WGS84 +units=m +no_defs"/>

   <edge id=":252528002_0" function="internal">
      <lanes>
         <lane id=":252528002_0_0" depart="0" maxspeed="13.89" length="22.26" shape="1962.80,417.59 1958.13,417.25 1952.02,418.37 1945.86,420.05 1941.06,421.37"/>
      </lanes>
   </edge>
   <edge id=":252528002_1" function="internal">
      <lanes>
         <lane id=":252528002_1_0" depart="0" maxspeed="13.89" length="22.41" shape="1962.80,417.59 1958.82,416.25 1953.88,414.86 1948.05,413.20 1941.37,411.05"/>
      </lanes>
   </edge>
   <edge id=":252528002_2" function="internal">
      <lanes>
         <lane id=":252528002_2_0" depart="0" maxspeed="13.89" length="4.82" shape="1962.80,417.59 1961.96,416.37 1961.88,415.45 1962.57,414.84 1964.02,414.53"/>
      </lanes>
   </edge>
   <edge id=":252528002_3" function="internal">
      <lanes>
         <lane id=":252528002_3_0" depart="0" maxspeed="13.89" length="23.06" shape="1943.18,404.70 1949.77,407.36 1955.40,410.15 1960.14,412.67 1964.02,414.53"/>
      </lanes>
   </edge>
   <edge id=":252528002_4" function="internal">
      <lanes>
         <lane id=":252528002_4_0" depart="0" maxspeed="13.89" length="27.91" shape="1942.28,407.87 1950.80,411.72 1953.44,415.25 1950.19,418.47 1941.06,421.37"/>
      </lanes>
   </edge>
   <edge id=":252528002_5" function="internal">
      <lanes>
         <lane id=":252528002_5_0" depart="0" maxspeed="13.89" length="4.82" shape="1942.28,407.87 1943.24,409.01 1943.41,409.92 1942.79,410.60 1941.37,411.05"/>
      </lanes>
   </edge>
   <edge id=":252528002_6" function="internal">
      <lanes>
         <lane id=":252528002_6_0" depart="0" maxspeed="13.89" length="8.10" shape="1940.33,418.15 1942.93,417.32 1943.81,416.39 1942.99,415.35 1940.46,414.22"/>
      </lanes>
   </edge>
   <edge id=":252528002_7" function="internal">
      <lanes>
         <lane id=":252528002_7_0" depart="0" maxspeed="13.89" length="24.14" shape="1940.33,418.15 1945.44,416.86 1952.26,415.23 1959.05,414.16 1964.02,414.53"/>
      </lanes>
   </edge>
   <edge id=":252528002_8" function="internal">
      <lanes>
         <lane id=":252528002_8_0" depart="0" maxspeed="13.89" length="4.82" shape="1940.33,418.15 1941.72,418.68 1942.30,419.40 1942.09,420.29 1941.06,421.37"/>
      </lanes>
   </edge>
   <edge id=":253280171_0" function="internal">
      <lanes>
         <lane id=":253280171_0_0" depart="0" maxspeed="13.89" length="4.82" shape="2178.56,796.71 2179.87,796.00 2180.79,796.02 2181.33,796.77 2181.48,798.25"/>
      </lanes>
   </edge>
   <edge id=":253280178_0" function="internal">
      <lanes>
         <lane id=":253280178_0_0" depart="0" maxspeed="13.89" length="4.97" shape="2145.70,1031.59 2144.38,1031.28 2143.27,1031.46 2142.37,1032.13 2141.67,1033.30"/>
      </lanes>
   </edge>
   <edge id=":253280178_1" function="internal">
      <lanes>
         <lane id=":253280178_1_0" depart="0" maxspeed="13.89" length="12.27" shape="2145.70,1031.59 2141.95,1029.80 2139.40,1027.83 2138.06,1025.67 2137.92,1023.32"/>
      </lanes>
   </edge>
   <edge id=":253280178_2" function="internal">
      <lanes>
         <lane id=":253280178_2_0" depart="0" maxspeed="13.89" length="4.82" shape="2145.70,1031.59 2144.85,1030.37 2144.76,1029.45 2145.45,1028.83 2146.90,1028.51"/>
      </lanes>
   </edge>
   <edge id=":253280178_3" function="internal">
      <lanes>
         <lane id=":253280178_3_0" depart="0" maxspeed="13.89" length="5.14" shape="2144.41,1024.55 2144.36,1025.85 2144.77,1026.93 2145.61,1027.82 2146.90,1028.51"/>
      </lanes>
   </edge>
   <edge id=":253280178_4" function="internal">
      <lanes>
         <lane id=":253280178_4_0" depart="0" maxspeed="13.89" length="9.16" shape="2144.41,1024.55 2141.67,1033.30"/>
      </lanes>
   </edge>
   <edge id=":253280178_5" function="internal">
      <lanes>
         <lane id=":253280178_5_0" depart="0" maxspeed="13.89" length="8.48" shape="2141.16,1023.94 2138.63,1032.03"/>
      </lanes>
   </edge>
   <edge id=":253280178_6" function="internal">
      <lanes>
         <lane id=":253280178_6_0" depart="0" maxspeed="13.89" length="4.82" shape="2141.16,1023.94 2140.12,1025.00 2139.24,1025.25 2138.50,1024.69 2137.92,1023.32"/>
      </lanes>
   </edge>
   <edge id=":253280178_7" function="internal">
      <lanes>
         <lane id=":253280178_7_0" depart="0" maxspeed="13.89" length="7.10" shape="2132.54,1029.48 2134.68,1022.71"/>
      </lanes>
   </edge>
   <edge id=":253280178_8" function="internal">
      <lanes>
         <lane id=":253280178_8_0" depart="0" maxspeed="13.89" length="7.79" shape="2135.58,1030.75 2137.92,1023.32"/>
      </lanes>
   </edge>
   <edge id=":253280178_9" function="internal">
      <lanes>
         <lane id=":253280178_9_0" depart="0" maxspeed="13.89" length="12.92" shape="2135.58,1030.75 2137.19,1028.47 2139.61,1027.34 2142.84,1027.35 2146.90,1028.51"/>
      </lanes>
   </edge>
   <edge id=":253280178_10" function="internal">
      <lanes>
         <lane id=":253280178_10_0" depart="0" maxspeed="13.89" length="4.82" shape="2135.58,1030.75 2136.82,1029.93 2137.74,1029.87 2138.34,1030.57 2138.63,1032.03"/>
      </lanes>
   </edge>
   <edge id=":253280181_0" function="internal">
      <lanes>
         <lane id=":253280181_0_0" depart="0" maxspeed="13.89" length="5.04" shape="1664.51,2358.28 1663.16,2357.96 1662.05,2358.16 1661.17,2358.87 1660.52,2360.10"/>
      </lanes>
   </edge>
   <edge id=":253280181_1" function="internal">
      <lanes>
         <lane id=":253280181_1_0" depart="0" maxspeed="13.89" length="16.40" shape="1665.72,2355.21 1661.19,2353.43 1658.08,2352.22 1654.97,2351.04 1650.41,2349.32"/>
      </lanes>
   </edge>
   <edge id=":253280181_2" function="internal">
      <lanes>
         <lane id=":253280181_2_0" depart="0" maxspeed="13.89" length="3.31" shape="1665.72,2355.21 1664.79,2354.68"/>
      </lanes>
   </edge>
   <edge id=":253280181_18" function="internal">
      <lanes>
         <lane id=":253280181_18_0" depart="0" maxspeed="13.89" length="12.66" shape="1664.79,2354.68 1661.91,2353.06 1659.65,2350.21 1658.96,2346.66 1659.82,2342.41"/>
      </lanes>
   </edge>
   <edge id=":253280181_3" function="internal">
      <lanes>
         <lane id=":253280181_3_0" depart="0" maxspeed="13.89" length="0.10" shape="1665.72,2355.21 1664.93,2354.07"/>
      </lanes>
   </edge>
   <edge id=":253280181_19" function="internal">
      <lanes>
         <lane id=":253280181_19_0" depart="0" maxspeed="13.89" length="4.72" shape="1664.93,2354.07 1664.87,2353.99 1664.79,2353.07 1665.47,2352.46 1666.93,2352.14"/>
      </lanes>
   </edge>
   <edge id=":253280181_4" function="internal">
      <lanes>
         <lane id=":253280181_4_0" depart="0" maxspeed="13.89" length="5.56" shape="1666.04,2344.63 1665.74,2346.10 1666.00,2347.33 1666.79,2348.32 1668.13,2349.07"/>
      </lanes>
   </edge>
   <edge id=":253280181_5" function="internal">
      <lanes>
         <lane id=":253280181_5_0" depart="0" maxspeed="13.89" length="16.42" shape="1666.04,2344.63 1664.40,2349.22 1663.28,2352.36 1662.16,2355.51 1660.52,2360.10"/>
      </lanes>
   </edge>
   <edge id=":253280181_6" function="internal">
      <lanes>
         <lane id=":253280181_6_0" depart="0" maxspeed="13.89" length="16.43" shape="1662.93,2343.52 1661.29,2348.11 1660.17,2351.26 1659.05,2354.40 1657.41,2358.99"/>
      </lanes>
   </edge>
   <edge id=":253280181_7" function="internal">
      <lanes>
         <lane id=":253280181_7_0" depart="0" maxspeed="13.89" length="8.87" shape="1662.93,2343.52 1660.91,2347.36 1655.60,2350.08"/>
      </lanes>
   </edge>
   <edge id=":253280181_20" function="internal">
      <lanes>
         <lane id=":253280181_20_0" depart="0" maxspeed="13.89" length="6.93" shape="1655.60,2350.08 1654.65,2350.26 1650.41,2349.32"/>
      </lanes>
   </edge>
   <edge id=":253280181_8" function="internal">
      <lanes>
         <lane id=":253280181_8_0" depart="0" maxspeed="13.89" length="0.10" shape="1662.93,2343.52 1661.82,2344.35"/>
      </lanes>
   </edge>
   <edge id=":253280181_21" function="internal">
      <lanes>
         <lane id=":253280181_21_0" depart="0" maxspeed="13.89" length="4.72" shape="1661.82,2344.35 1661.74,2344.41 1660.82,2344.52 1660.18,2343.85 1659.82,2342.41"/>
      </lanes>
   </edge>
   <edge id=":253280181_9" function="internal">
      <lanes>
         <lane id=":253280181_9_0" depart="0" maxspeed="13.89" length="5.02" shape="1652.74,2343.14 1654.08,2343.44 1655.19,2343.23 1656.07,2342.52 1656.72,2341.30"/>
      </lanes>
   </edge>
   <edge id=":253280181_10" function="internal">
      <lanes>
         <lane id=":253280181_10_0" depart="0" maxspeed="13.89" length="16.45" shape="1651.57,2346.23 1656.14,2347.95 1659.27,2349.14 1662.38,2350.36 1666.93,2352.14"/>
      </lanes>
   </edge>
   <edge id=":253280181_11" function="internal">
      <lanes>
         <lane id=":253280181_11_0" depart="0" maxspeed="13.89" length="3.22" shape="1651.57,2346.23 1652.55,2346.77"/>
      </lanes>
   </edge>
   <edge id=":253280181_22" function="internal">
      <lanes>
         <lane id=":253280181_22_0" depart="0" maxspeed="13.89" length="12.72" shape="1652.55,2346.77 1655.37,2348.32 1657.61,2351.15 1658.29,2354.70 1657.41,2358.99"/>
      </lanes>
   </edge>
   <edge id=":253280181_12" function="internal">
      <lanes>
         <lane id=":253280181_12_0" depart="0" maxspeed="13.89" length="0.10" shape="1651.57,2346.23 1652.38,2347.36"/>
      </lanes>
   </edge>
   <edge id=":253280181_23" function="internal">
      <lanes>
         <lane id=":253280181_23_0" depart="0" maxspeed="13.89" length="4.72" shape="1652.38,2347.36 1652.44,2347.44 1652.54,2348.36 1651.86,2348.98 1650.41,2349.32"/>
      </lanes>
   </edge>
   <edge id=":253280181_13" function="internal">
      <lanes>
         <lane id=":253280181_13_0" depart="0" maxspeed="13.89" length="5.43" shape="1651.19,2356.78 1651.50,2355.30 1651.28,2354.08 1650.53,2353.12 1649.25,2352.41"/>
      </lanes>
   </edge>
   <edge id=":253280181_14" function="internal">
      <lanes>
         <lane id=":253280181_14_0" depart="0" maxspeed="13.89" length="16.43" shape="1651.19,2356.78 1652.83,2352.18 1653.95,2349.04 1655.07,2345.89 1656.72,2341.30"/>
      </lanes>
   </edge>
   <edge id=":253280181_15" function="internal">
      <lanes>
         <lane id=":253280181_15_0" depart="0" maxspeed="13.89" length="16.43" shape="1654.30,2357.89 1655.94,2353.29 1657.06,2350.15 1658.18,2347.00 1659.82,2342.41"/>
      </lanes>
   </edge>
   <edge id=":253280181_16" function="internal">
      <lanes>
         <lane id=":253280181_16_0" depart="0" maxspeed="13.89" length="8.90" shape="1654.30,2357.89 1656.35,2354.00 1661.74,2351.29"/>
      </lanes>
   </edge>
   <edge id=":253280181_24" function="internal">
      <lanes>
         <lane id=":253280181_24_0" depart="0" maxspeed="13.89" length="7.04" shape="1661.74,2351.29 1662.66,2351.13 1666.93,2352.14"/>
      </lanes>
   </edge>
   <edge id=":253280181_17" function="internal">
      <lanes>
         <lane id=":253280181_17_0" depart="0" maxspeed="13.89" length="0.10" shape="1654.30,2357.89 1655.42,2357.06"/>
      </lanes>
   </edge>
   <edge id=":253280181_25" function="internal">
      <lanes>
         <lane id=":253280181_25_0" depart="0" maxspeed="13.89" length="4.72" shape="1655.42,2357.06 1655.50,2357.00 1656.41,2356.88 1657.05,2357.55 1657.41,2358.99"/>
      </lanes>
   </edge>
   <edge id=":254506367_0" function="internal">
      <lanes>
         <lane id=":254506367_0_0" depart="0" maxspeed="13.89" length="4.82" shape="661.78,1559.40 660.58,1560.28 659.66,1560.38 659.03,1559.70 658.69,1558.26"/>
      </lanes>
   </edge>
   <edge id=":254506369_0" function="internal">
      <lanes>
         <lane id=":254506369_0_0" depart="0" maxspeed="13.89" length="0.22" shape="1124.22,319.46 1124.14,319.67"/>
      </lanes>
   </edge>
   <edge id=":254506369_1" function="internal">
      <lanes>
         <lane id=":254506369_1_0" depart="0" maxspeed="13.89" length="0.11" shape="1121.11,318.36 1121.07,318.46"/>
      </lanes>
   </edge>
   <edge id=":254506369_2" function="internal">
      <lanes>
         <lane id=":254506369_2_0" depart="0" maxspeed="13.89" length="4.82" shape="1121.11,318.36 1119.92,319.25 1119.00,319.36 1118.36,318.69 1118.00,317.25"/>
      </lanes>
   </edge>
   <edge id=":254506369_3" function="internal">
      <lanes>
         <lane id=":254506369_3_0" depart="0" maxspeed="13.89" length="0.11" shape="1114.89,316.15 1114.93,316.04"/>
      </lanes>
   </edge>
   <edge id=":254506369_4" function="internal">
      <lanes>
         <lane id=":254506369_4_0" depart="0" maxspeed="13.89" length="0.10" shape="1118.00,317.25 1118.00,317.25"/>
      </lanes>
   </edge>
   <edge id=":254506369_5" function="internal">
      <lanes>
         <lane id=":254506369_5_0" depart="0" maxspeed="13.89" length="4.82" shape="1118.00,317.25 1119.22,316.40 1120.14,316.32 1120.76,317.01 1121.07,318.46"/>
      </lanes>
   </edge>
   <edge id=":254506371_0" function="internal">
      <lanes>
         <lane id=":254506371_0_0" depart="0" maxspeed="20.83" length="5.00" shape="1194.60,138.87 1193.26,138.58 1192.15,138.79 1191.27,139.50 1190.62,140.71"/>
      </lanes>
   </edge>
   <edge id=":254506371_1" function="internal">
      <lanes>
         <lane id=":254506371_1_0" depart="0" maxspeed="20.83" length="10.34" shape="1195.75,135.77 1192.97,135.17 1190.68,135.61 1188.86,137.08 1187.52,139.58"/>
      </lanes>
   </edge>
   <edge id=":254506371_2" function="internal">
      <lanes>
         <lane id=":254506371_2_0" depart="0" maxspeed="13.89" length="16.13" shape="1195.75,135.77 1191.25,134.11 1188.18,132.98 1185.10,131.86 1180.60,130.23"/>
      </lanes>
   </edge>
   <edge id=":254506371_3" function="internal">
      <lanes>
         <lane id=":254506371_3_0" depart="0" maxspeed="13.89" length="0.10" shape="1195.75,135.77 1194.93,134.65"/>
      </lanes>
   </edge>
   <edge id=":254506371_11" function="internal">
      <lanes>
         <lane id=":254506371_11_0" depart="0" maxspeed="13.89" length="4.72" shape="1194.93,134.65 1194.87,134.57 1194.77,133.65 1195.44,133.02 1196.89,132.68"/>
      </lanes>
   </edge>
   <edge id=":254506371_4" function="internal">
      <lanes>
         <lane id=":254506371_4_0" depart="0" maxspeed="13.89" length="16.18" shape="1182.84,124.02 1187.36,125.66 1190.45,126.78 1193.53,127.92 1198.03,129.58"/>
      </lanes>
   </edge>
   <edge id=":254506371_5" function="internal">
      <lanes>
         <lane id=":254506371_5_0" depart="0" maxspeed="20.83" length="8.85" shape="1181.72,127.13 1185.51,129.14 1188.22,134.37"/>
      </lanes>
   </edge>
   <edge id=":254506371_12" function="internal">
      <lanes>
         <lane id=":254506371_12_0" depart="0" maxspeed="20.83" length="6.83" shape="1188.22,134.37 1188.41,135.37 1187.52,139.58"/>
      </lanes>
   </edge>
   <edge id=":254506371_6" function="internal">
      <lanes>
         <lane id=":254506371_6_0" depart="0" maxspeed="13.89" length="0.10" shape="1181.72,127.13 1182.54,128.24"/>
      </lanes>
   </edge>
   <edge id=":254506371_13" function="internal">
      <lanes>
         <lane id=":254506371_13_0" depart="0" maxspeed="13.89" length="4.72" shape="1182.54,128.24 1182.60,128.32 1182.71,129.24 1182.04,129.87 1180.60,130.23"/>
      </lanes>
   </edge>
   <edge id=":254506371_7" function="internal">
      <lanes>
         <lane id=":254506371_7_0" depart="0" maxspeed="20.83" length="5.01" shape="1181.32,137.32 1181.61,135.97 1181.39,134.86 1180.68,133.98 1179.47,133.33"/>
      </lanes>
   </edge>
   <edge id=":254506371_8" function="internal">
      <lanes>
         <lane id=":254506371_8_0" depart="0" maxspeed="20.83" length="10.34" shape="1184.42,138.45 1185.01,135.67 1184.57,133.37 1183.10,131.56 1180.60,130.23"/>
      </lanes>
   </edge>
   <edge id=":254506371_9" function="internal">
      <lanes>
         <lane id=":254506371_9_0" depart="0" maxspeed="20.83" length="15.68" shape="1184.42,138.45 1186.45,134.66 1189.21,132.43 1192.69,131.77 1196.89,132.68"/>
      </lanes>
   </edge>
   <edge id=":254506371_10" function="internal">
      <lanes>
         <lane id=":254506371_10_0" depart="0" maxspeed="27.78" length="0.10" shape="1184.42,138.45 1185.54,137.63"/>
      </lanes>
   </edge>
   <edge id=":254506371_14" function="internal">
      <lanes>
         <lane id=":254506371_14_0" depart="0" maxspeed="27.78" length="4.72" shape="1185.54,137.63 1185.62,137.57 1186.54,137.46 1187.17,138.13 1187.52,139.58"/>
      </lanes>
   </edge>
   <edge id=":258961689_0" function="internal">
      <lanes>
         <lane id=":258961689_0_0" depart="0" maxspeed="13.89" length="5.00" shape="998.67,663.68 997.33,663.39 996.22,663.60 995.34,664.30 994.68,665.51"/>
      </lanes>
   </edge>
   <edge id=":258961689_1" function="internal">
      <lanes>
         <lane id=":258961689_1_0" depart="0" maxspeed="13.89" length="16.10" shape="998.67,663.68 994.99,662.31 991.13,660.87 987.26,659.43 983.58,658.06"/>
      </lanes>
   </edge>
   <edge id=":258961689_2" function="internal">
      <lanes>
         <lane id=":258961689_2_0" depart="0" maxspeed="13.89" length="3.12" shape="998.67,663.68 997.64,663.18"/>
      </lanes>
   </edge>
   <edge id=":258961689_18" function="internal">
      <lanes>
         <lane id=":258961689_18_0" depart="0" maxspeed="13.89" length="9.98" shape="997.64,663.18 994.83,661.83 992.41,659.64 991.40,657.13 991.81,654.30"/>
      </lanes>
   </edge>
   <edge id=":258961689_3" function="internal">
      <lanes>
         <lane id=":258961689_3_0" depart="0" maxspeed="13.89" length="0.10" shape="998.67,663.68 997.86,662.56"/>
      </lanes>
   </edge>
   <edge id=":258961689_19" function="internal">
      <lanes>
         <lane id=":258961689_19_0" depart="0" maxspeed="13.89" length="4.72" shape="997.86,662.56 997.80,662.48 997.70,661.56 998.38,660.93 999.82,660.59"/>
      </lanes>
   </edge>
   <edge id=":258961689_4" function="internal">
      <lanes>
         <lane id=":258961689_4_0" depart="0" maxspeed="13.89" length="5.00" shape="998.00,656.60 997.71,657.94 997.91,659.05 998.62,659.94 999.82,660.59"/>
      </lanes>
   </edge>
   <edge id=":258961689_5" function="internal">
      <lanes>
         <lane id=":258961689_5_0" depart="0" maxspeed="13.89" length="9.50" shape="998.00,656.60 994.68,665.51"/>
      </lanes>
   </edge>
   <edge id=":258961689_6" function="internal">
      <lanes>
         <lane id=":258961689_6_0" depart="0" maxspeed="13.89" length="9.50" shape="994.90,655.45 991.59,664.35"/>
      </lanes>
   </edge>
   <edge id=":258961689_7" function="internal">
      <lanes>
         <lane id=":258961689_7_0" depart="0" maxspeed="13.89" length="6.51" shape="994.90,655.45 993.36,657.86 988.64,659.15"/>
      </lanes>
   </edge>
   <edge id=":258961689_20" function="internal">
      <lanes>
         <lane id=":258961689_20_0" depart="0" maxspeed="13.89" length="6.58" shape="988.64,659.15 987.70,659.17 983.58,658.06"/>
      </lanes>
   </edge>
   <edge id=":258961689_8" function="internal">
      <lanes>
         <lane id=":258961689_8_0" depart="0" maxspeed="13.89" length="0.10" shape="994.90,655.45 993.78,656.26"/>
      </lanes>
   </edge>
   <edge id=":258961689_21" function="internal">
      <lanes>
         <lane id=":258961689_21_0" depart="0" maxspeed="13.89" length="4.72" shape="993.78,656.26 993.70,656.32 992.78,656.42 992.15,655.75 991.81,654.30"/>
      </lanes>
   </edge>
   <edge id=":258961689_9" function="internal">
      <lanes>
         <lane id=":258961689_9_0" depart="0" maxspeed="13.89" length="5.00" shape="984.73,654.97 986.07,655.26 987.18,655.06 988.06,654.35 988.72,653.15"/>
      </lanes>
   </edge>
   <edge id=":258961689_10" function="internal">
      <lanes>
         <lane id=":258961689_10_0" depart="0" maxspeed="13.89" length="16.11" shape="984.73,654.97 988.41,656.34 992.28,657.78 996.15,659.22 999.82,660.59"/>
      </lanes>
   </edge>
   <edge id=":258961689_11" function="internal">
      <lanes>
         <lane id=":258961689_11_0" depart="0" maxspeed="13.89" length="3.12" shape="984.73,654.97 985.76,655.47"/>
      </lanes>
   </edge>
   <edge id=":258961689_22" function="internal">
      <lanes>
         <lane id=":258961689_22_0" depart="0" maxspeed="13.89" length="9.98" shape="985.76,655.47 988.57,656.82 990.99,659.01 992.00,661.52 991.59,664.35"/>
      </lanes>
   </edge>
   <edge id=":258961689_12" function="internal">
      <lanes>
         <lane id=":258961689_12_0" depart="0" maxspeed="13.89" length="0.10" shape="984.73,654.97 985.54,656.09"/>
      </lanes>
   </edge>
   <edge id=":258961689_23" function="internal">
      <lanes>
         <lane id=":258961689_23_0" depart="0" maxspeed="13.89" length="4.72" shape="985.54,656.09 985.60,656.18 985.70,657.09 985.03,657.72 983.58,658.06"/>
      </lanes>
   </edge>
   <edge id=":258961689_13" function="internal">
      <lanes>
         <lane id=":258961689_13_0" depart="0" maxspeed="13.89" length="5.00" shape="985.40,662.05 985.70,660.71 985.49,659.60 984.78,658.72 983.58,658.06"/>
      </lanes>
   </edge>
   <edge id=":258961689_14" function="internal">
      <lanes>
         <lane id=":258961689_14_0" depart="0" maxspeed="13.89" length="9.50" shape="985.40,662.05 988.72,653.15"/>
      </lanes>
   </edge>
   <edge id=":258961689_15" function="internal">
      <lanes>
         <lane id=":258961689_15_0" depart="0" maxspeed="13.89" length="9.50" shape="988.50,663.20 991.81,654.30"/>
      </lanes>
   </edge>
   <edge id=":258961689_16" function="internal">
      <lanes>
         <lane id=":258961689_16_0" depart="0" maxspeed="13.89" length="6.51" shape="988.50,663.20 990.04,660.79 994.77,659.50"/>
      </lanes>
   </edge>
   <edge id=":258961689_24" function="internal">
      <lanes>
         <lane id=":258961689_24_0" depart="0" maxspeed="13.89" length="6.59" shape="994.77,659.50 995.71,659.48 999.82,660.59"/>
      </lanes>
   </edge>
   <edge id=":258961689_17" function="internal">
      <lanes>
         <lane id=":258961689_17_0" depart="0" maxspeed="13.89" length="0.10" shape="988.50,663.20 989.62,662.39"/>
      </lanes>
   </edge>
   <edge id=":258961689_25" function="internal">
      <lanes>
         <lane id=":258961689_25_0" depart="0" maxspeed="13.89" length="4.72" shape="989.62,662.39 989.70,662.33 990.62,662.23 991.25,662.91 991.59,664.35"/>
      </lanes>
   </edge>
   <edge id=":258961690_0" function="internal">
      <lanes>
         <lane id=":258961690_0_0" depart="0" maxspeed="13.89" length="5.11" shape="2119.65,1094.54 2118.26,1094.23 2117.11,1094.43 2116.21,1095.14 2115.56,1096.35"/>
      </lanes>
   </edge>
   <edge id=":258961690_1" function="internal">
      <lanes>
         <lane id=":258961690_1_0" depart="0" maxspeed="13.89" length="16.21" shape="2119.65,1094.54 2115.96,1093.18 2112.05,1091.73 2108.14,1090.28 2104.45,1088.89"/>
      </lanes>
   </edge>
   <edge id=":258961690_2" function="internal">
      <lanes>
         <lane id=":258961690_2_0" depart="0" maxspeed="13.89" length="3.16" shape="2119.65,1094.54 2118.59,1094.02"/>
      </lanes>
   </edge>
   <edge id=":258961690_18" function="internal">
      <lanes>
         <lane id=":258961690_18_0" depart="0" maxspeed="13.89" length="10.24" shape="2118.59,1094.02 2115.74,1092.65 2113.31,1090.41 2112.38,1087.82 2112.94,1084.87"/>
      </lanes>
   </edge>
   <edge id=":258961690_3" function="internal">
      <lanes>
         <lane id=":258961690_3_0" depart="0" maxspeed="13.89" length="0.10" shape="2119.65,1094.54 2118.84,1093.42"/>
      </lanes>
   </edge>
   <edge id=":258961690_19" function="internal">
      <lanes>
         <lane id=":258961690_19_0" depart="0" maxspeed="13.89" length="4.72" shape="2118.84,1093.42 2118.78,1093.34 2118.67,1092.42 2119.34,1091.79 2120.79,1091.44"/>
      </lanes>
   </edge>
   <edge id=":258961690_4" function="internal">
      <lanes>
         <lane id=":258961690_4_0" depart="0" maxspeed="13.89" length="5.05" shape="2119.03,1087.42 2118.68,1088.77 2118.86,1089.89 2119.56,1090.78 2120.79,1091.44"/>
      </lanes>
   </edge>
   <edge id=":258961690_5" function="internal">
      <lanes>
         <lane id=":258961690_5_0" depart="0" maxspeed="13.89" length="9.59" shape="2119.03,1087.42 2115.56,1096.35"/>
      </lanes>
   </edge>
   <edge id=":258961690_6" function="internal">
      <lanes>
         <lane id=":258961690_6_0" depart="0" maxspeed="13.89" length="9.76" shape="2115.99,1086.14 2112.46,1095.24"/>
      </lanes>
   </edge>
   <edge id=":258961690_7" function="internal">
      <lanes>
         <lane id=":258961690_7_0" depart="0" maxspeed="13.89" length="6.62" shape="2115.99,1086.14 2114.31,1088.61 2109.38,1089.96"/>
      </lanes>
   </edge>
   <edge id=":258961690_20" function="internal">
      <lanes>
         <lane id=":258961690_20_0" depart="0" maxspeed="13.89" length="6.68" shape="2109.38,1089.96 2108.54,1089.99 2104.45,1088.89"/>
      </lanes>
   </edge>
   <edge id=":258961690_8" function="internal">
      <lanes>
         <lane id=":258961690_8_0" depart="0" maxspeed="13.89" length="0.10" shape="2115.99,1086.14 2114.83,1086.91"/>
      </lanes>
   </edge>
   <edge id=":258961690_21" function="internal">
      <lanes>
         <lane id=":258961690_21_0" depart="0" maxspeed="13.89" length="4.72" shape="2114.83,1086.91 2114.75,1086.97 2113.83,1087.03 2113.23,1086.33 2112.94,1084.87"/>
      </lanes>
   </edge>
   <edge id=":258961690_9" function="internal">
      <lanes>
         <lane id=":258961690_9_0" depart="0" maxspeed="13.89" length="5.44" shape="2105.62,1085.81 2106.97,1086.08 2108.14,1085.80 2109.11,1084.97 2109.90,1083.60"/>
      </lanes>
   </edge>
   <edge id=":258961690_10" function="internal">
      <lanes>
         <lane id=":258961690_10_0" depart="0" maxspeed="13.89" length="16.18" shape="2105.62,1085.81 2109.30,1087.19 2113.20,1088.64 2117.10,1090.08 2120.79,1091.44"/>
      </lanes>
   </edge>
   <edge id=":258961690_11" function="internal">
      <lanes>
         <lane id=":258961690_11_0" depart="0" maxspeed="13.89" length="3.12" shape="2105.62,1085.81 2106.62,1086.29"/>
      </lanes>
   </edge>
   <edge id=":258961690_22" function="internal">
      <lanes>
         <lane id=":258961690_22_0" depart="0" maxspeed="13.89" length="9.98" shape="2106.62,1086.29 2109.42,1087.67 2111.83,1089.86 2112.84,1092.38 2112.46,1095.24"/>
      </lanes>
   </edge>
   <edge id=":258961690_12" function="internal">
      <lanes>
         <lane id=":258961690_12_0" depart="0" maxspeed="13.89" length="0.10" shape="2105.62,1085.81 2106.43,1086.93"/>
      </lanes>
   </edge>
   <edge id=":258961690_23" function="internal">
      <lanes>
         <lane id=":258961690_23_0" depart="0" maxspeed="13.89" length="4.72" shape="2106.43,1086.93 2106.48,1087.01 2106.58,1087.93 2105.90,1088.56 2104.45,1088.89"/>
      </lanes>
   </edge>
   <edge id=":258961690_13" function="internal">
      <lanes>
         <lane id=":258961690_13_0" depart="0" maxspeed="13.89" length="5.11" shape="2106.24,1093.02 2106.54,1091.62 2106.34,1090.47 2105.64,1089.56 2104.45,1088.89"/>
      </lanes>
   </edge>
   <edge id=":258961690_14" function="internal">
      <lanes>
         <lane id=":258961690_14_0" depart="0" maxspeed="13.89" length="10.11" shape="2106.24,1093.02 2107.26,1090.20 2107.98,1088.27 2108.74,1086.37 2109.90,1083.60"/>
      </lanes>
   </edge>
   <edge id=":258961690_15" function="internal">
      <lanes>
         <lane id=":258961690_15_0" depart="0" maxspeed="13.89" length="9.94" shape="2109.35,1094.13 2112.94,1084.87"/>
      </lanes>
   </edge>
   <edge id=":258961690_16" function="internal">
      <lanes>
         <lane id=":258961690_16_0" depart="0" maxspeed="13.89" length="6.66" shape="2109.35,1094.13 2110.88,1091.68 2115.55,1090.36"/>
      </lanes>
   </edge>
   <edge id=":258961690_24" function="internal">
      <lanes>
         <lane id=":258961690_24_0" depart="0" maxspeed="13.89" length="6.59" shape="2115.55,1090.36 2116.60,1090.33 2120.79,1091.44"/>
      </lanes>
   </edge>
   <edge id=":258961690_17" function="internal">
      <lanes>
         <lane id=":258961690_17_0" depart="0" maxspeed="13.89" length="0.10" shape="2109.35,1094.13 2110.46,1093.31"/>
      </lanes>
   </edge>
   <edge id=":258961690_25" function="internal">
      <lanes>
         <lane id=":258961690_25_0" depart="0" maxspeed="13.89" length="4.72" shape="2110.46,1093.31 2110.54,1093.25 2111.46,1093.13 2112.10,1093.80 2112.46,1095.24"/>
      </lanes>
   </edge>
   <edge id=":259075689_0" function="internal">
      <lanes>
         <lane id=":259075689_0_0" depart="0" maxspeed="13.89" length="5.01" shape="356.38,1843.55 355.04,1843.24 353.93,1843.44 353.04,1844.14 352.38,1845.35"/>
      </lanes>
   </edge>
   <edge id=":259075689_1" function="internal">
      <lanes>
         <lane id=":259075689_1_0" depart="0" maxspeed="13.89" length="16.14" shape="356.38,1843.55 351.91,1841.82 348.85,1840.64 345.80,1839.46 341.32,1837.73"/>
      </lanes>
   </edge>
   <edge id=":259075689_2" function="internal">
      <lanes>