<routes>
  <vehicle id="t0" type="city_vehicles" depart="0.000000">
    <route edges="25840020 -25840020 -40070615#18 -40070615#17 -40070615#16 -40070615#15 -40070615#14 -40070615#13 -40070615#12 -40070615#11 -40070615#10 -40070615#9 -40070615#8 -40070615#7 -40070615#6 -40070615#5 -40070615#4 -40070615#3 -27672317#9 27672902#1 24006308#3 24006308#4 24006308#5 24006308#6 24006308#7 24006308#8 24006308#9 41231929 -41231929"/>
  </vehicle>
  <vehicle id="t1" type="city_vehicles" depart="0.500000">
    <route edges="25840020 -25840020 -40070615#18 -40070615#17 -40070615#16 -40070615#15 -40070615#14 -40070615#13 -40070615#12 -40070615#11 -40070615#10 -40070615#9 -40070615#8 -40070615#7 -40070615#6 -40070615#5 -40070615#4 -40070615#3 -40070615#2 -40070615#1 27785510#1 27672902#3 27785509#1 -27785509#1"/>
  </vehicle>
  <vehicle id="t2" type="city_vehicles" depart="1.000000">
    <route edges="27672902#3 -27672902#3 -27785510#1 40070615#1 40070615#2 40070615#3 40070615#4 40070615#5 40070615#6 40070615#7 40070615#8 40070615#9 40070615#10 40070615#11 40070615#12 40070615#13 40070615#14 40070615#15 40070615#16 40070615#17 40070615#18 -40070615#18"/>
  </vehicle>
  <vehicle id="t3" type="city_vehicles" depart="1.500000">
    <route edges="24006308#4 -24006308#4 -24006308#3 -27672902#1 27672317#9 40070615#3 40070615#4 40070615#5 40070615#6 40070615#7 40070615#8 40070615#9 40070615#10 40070615#11 40070615#12 40070615#13 40070615#14 40070615#15 40070615#16 40070615#17 40070615#18 25840020 -23365098#6"/>
  </vehicle>
  <vehicle id="t4" type="city_vehicles" depart="2.000000">
    <route edges="27785509#0 -27672902#3 -27785510#1 40070615#1 40070615#2 40070615#3 40070615#4 40070615#5 40070615#6 40070615#7 40070615#8 40070615#9 40070615#10 40070615#11 40070615#12 40070615#13 40070615#14 40070615#15 40070615#16 40070615#17 40070615#18 25840020"/>
  </vehicle>
  <vehicle id="t5" type="city_vehicles" depart="2.500000">
    <route edges="27785510#1 -27785510#1 40070615#1 40070615#2 40070615#3 40070615#4 40070615#5 40070615#6 40070615#7 40070615#8 40070615#9 40070615#10 40070615#11 40070615#12 40070615#13 40070615#14 40070615#15 40070615#16 40070615#17 40070615#18 25840020 -23365098#6 -27695727"/>
  </vehicle>
  <vehicle id="t6" type="city_vehicles" depart="3.000000">
    <route edges="25840176#17 -25840176#17 -24006308#9 -24006308#8 -24006308#7 -24006308#6 -24006308#5 -24006308#4 -24006308#3 -27672902#1 27672317#9 40070615#3 40070615#4 40070615#5 40070615#6 40070615#7 40070615#8 40070615#9 40070615#10 40070615#11 40070615#12 40070615#13 40070615#14 40070615#15 40070615#16 40070615#17 40070615#18 25840020 -23365098#6"/>
  </vehicle>
  <vehicle id="t7" type="city_vehicles" depart="3.500000">
    <route edges="102843056 -40070615#18 -40070615#17 -40070615#16 -40070615#15 -40070615#14 -40070615#13 -40070615#12 -40070615#11 -40070615#10 -40070615#9 -40070615#8 -40070615#7 -40070615#6 -40070615#5 -40070615#4 -40070615#3 -40070615#2 -40070615#1 27785510#1 27672902#3 27785509#1 27785509#2"/>
  </vehicle>
  <vehicle id="t8" type="city_vehicles" depart="4.000000">
    <route edges="40070615#18 -40070615#18 -40070615#17 -40070615#16 -40070615#15 -40070615#14 -40070615#13 -40070615#12 -40070615#11 -40070615#10 -40070615#9 -40070615#8 -40070615#7 -40070615#6 -40070615#5 -40070615#4 -40070615#3 -40070615#2 24006308#2"/>
  </vehicle>
  <vehicle id="t9" type="city_vehicles" depart="4.500000">
    <route edges="24006308#1 40070615#2 40070615#3 40070615#4 40070615#5 40070615#6 40070615#7 40070615#8 40070615#9 40070615#10 40070615#11 40070615#12 40070615#13 40070615#14 40070615#15 40070615#16 40070615#17 40070615#18 25840020 -23365098#6 23365098#6"/>
  </vehicle>
  <vehicle id="t10" type="city_vehicles" depart="5.000000">
    <route edges="27785509#0 -27672902#3 -27785510#1 40070615#1 40070615#2 40070615#3 40070615#4 40070615#5 40070615#6 40070615#7 40070615#8 40070615#9 40070615#10 40070615#11 40070615#12 40070615#13 40070615#14 40070615#15 40070615#16 40070615#17 40070615#18 25840020 -23365098#6 -27695727 -27695722"/>
  </vehicle>
  <vehicle id="t11" type="city_vehicles" depart="5.500000">
    <route edges="-27785509#0 40070615#0 40070615#1 40070615#2 40070615#3 40070615#4 40070615#5 40070615#6 40070615#7 40070615#8 40070615#9 40070615#10 40070615#11 40070615#12 40070615#13 40070615#14 40070615#15 40070615#16 40070615#17 40070615#18 25840020"/>
  </vehicle>
  <vehicle id="t12" type="city_vehicles" depart="6.000000">
    <route edges="-40070615#18 -40070615#17 -40070615#16 -40070615#15 -40070615#14 -40070615#13 -40070615#12 -40070615#11 -40070615#10 -40070615#9 -40070615#8 -40070615#7 -40070615#6 -40070615#5 -40070615#4 -40070615#3 -27672317#9 27672902#1 24006308#3 24006308#4 24006308#5 24006308#6 24006308#7 24006308#8 24006308#9 -24006308#9"/>
  </vehicle>
  <vehicle id="t13" type="city_vehicles" depart="6.500000">
    <route edges="25840176#17 -25840176#17 -24006308#9 -24006308#8 -24006308#7 -24006308#6 -24006308#5 -24006308#4 -24006308#3 -27672902#1 27672317#9 40070615#3 40070615#4 40070615#5 40070615#6 40070615#7 40070615#8 40070615#9 40070615#10 40070615#11 40070615#12 40070615#13 40070615#14 40070615#15 40070615#16 40070615#17 40070615#18 25840020"/>
  </vehicle>
  <vehicle id="t14" type="city_vehicles" depart="7.000000">
    <route edges="-41231929 -24006308#9 -24006308#8 -24006308#7 -24006308#6 -24006308#5 -24006308#4 -24006308#3 -27672902#1 27672317#9 40070615#3 40070615#4 40070615#5 40070615#6 40070615#7 40070615#8 40070615#9 40070615#10 40070615#11 40070615#12 40070615#13 40070615#14 40070615#15 40070615#16 40070615#17 40070615#18 -40070615#18"/>
  </vehicle>
  <vehicle id="t15" type="city_vehicles" depart="7.500000">
    <route edges="-40070615#2 40070615#2 40070615#3 40070615#4 40070615#5 40070615#6 40070615#7 40070615#8 40070615#9 40070615#10 40070615#11 40070615#12 40070615#13 40070615#14 40070615#15 40070615#16 40070615#17 40070615#18 25840020"/>
  </vehicle>
  <vehicle id="t16" type="city_vehicles" depart="8.000000">
    <route edges="-25840176#18 -25840176#17 -24006308#9 -24006308#8 -24006308#7 -24006308#6 -24006308#5 -24006308#4 -24006308#3 -27672902#1 27672317#9 40070615#3 40070615#4 40070615#5 40070615#6 40070615#7 40070615#8 40070615#9 40070615#10 40070615#11 40070615#12 40070615#13 40070615#14 40070615#15 40070615#16 40070615#17 40070615#18 25840020 -23365098#6"/>
  </vehicle>
  <vehicle id="t17" type="city_vehicles" depart="8.500000">
    <route edges="-40070615#1 40070615#1 40070615#2 40070615#3 40070615#4 40070615#5 40070615#6 40070615#7 40070615#8 -26764286#7 31293536#0 31260305 31294050#7 -26764285#8 -26764285#7 -26764285#6 -26764285#5 -26764285#4 -26764285#3 -26764285#2 -26764285#1 -26764285#0 -25840176#7 -25840176#6 -25840176#5 -25840176#4 25840176#4"/>
  </vehicle>
  <vehicle id="t18" type="city_vehicles" depart="9.000000">
    <route edges="-40070615#1 40070615#1 40070615#2 40070615#3 40070615#4 40070615#5 40070615#6 40070615#7 40070615#8 -26764286#7 31293536#0 31293536#1 31293536#2 31293535#0 31293535#1 31293535#2 31293535#3 23500854 51189618 -51189618"/>
  </vehicle>
  <vehicle id="t19" type="city_vehicles" depart="9.500000">
    <route edges="-40070615#1 40070615#1 40070615#2 40070615#3 40070615#4 40070615#5 40070615#6 40070615#7 40070615#8 40070615#9 40070615#10 40070615#11 40070615#12 40070615#13 40070615#14 40070615#15 40070615#16 -27771927#1 26774961#2"/>
  </vehicle>
  <vehicle id="t20" type="city_vehicles" depart="10.000000">
    <route edges="-24006308#2 40070615#2 40070615#3 40070615#4 40070615#5 40070615#6 40070615#7 40070615#8 40070615#9 40070615#10 40070615#11 40070615#12 40070615#13 40070615#14 40070615#15 40070615#16 40070615#17 63013181#2"/>
  </vehicle>
  <vehicle id="t21" type="city_vehicles" depart="10.500000">
    <route edges="40070615#13 -40070615#13 -40070615#12 -40070615#11 -40070615#10 -40070615#9 -40070615#8 -40070615#7 -40070615#6 -40070615#5 -40070615#4 -40070615#3 -40070615#2 -40070615#1 27785510#1 27672902#3 27785509#1 27785509#2 27785509#3"/>
  </vehicle>
  <vehicle id="t22" type="city_vehicles" depart="11.000000">
    <route edges="24006308#9 -24006308#9 -24006308#8 -24006308#7 -24006308#6 -24006308#5 -24006308#4 -24006308#3 -27672902#1 27672317#9 40070615#3 40070615#4 40070615#5 40070615#6 40070615#7 40070615#8 40070615#9 40070615#10 40070615#11 40070615#12 40070615#13 -26764289#1 -26764289#0 26764287#4 -26764287#4"/>
  </vehicle>
  <vehicle id="t23" type="city_vehicles" depart="11.500000">
    <route edges="23365098#5 -23365098#5 -34316281 -51189618 -23500854 -31293535#3 -27696193#5 -31294051#3 -31294051#2 -31294051#1 -31294051#0 -31294050#8 31294050#8"/>
  </vehicle>
  <vehicle id="t24" type="city_vehicles" depart="12.000000">
    <route edges="-25840176#17 -24006308#9 -24006308#8 -24006308#7 -24006308#6 -24006308#5 -24006308#4 -24006308#3 -27672902#1 27672317#9 40070615#3 40070615#4 40070615#5 40070615#6 40070615#7 40070615#8 40070615#9 40070615#10 40070615#11 40070615#12 40070615#13 40070615#14 40070615#15 40070615#16 40070615#17 40070615#18 102843057#0"/>
  </vehicle>
  <vehicle id="t25" type="city_vehicles" depart="12.500000">
    <route edges="27785510#0 40070615#1 40070615#2 40070615#3 40070615#4 40070615#5 40070615#6 40070615#7 40070615#8 40070615#9 40070615#10 40070615#11 40070615#12 40070615#13 40070615#14 40070615#15 40070615#16 27771927#2"/>
  </vehicle>
  <vehicle id="t26" type="city_vehicles" depart="13.000000">
    <route edges="-27771927#2 -40070615#16 -40070615#15 -40070615#14 -40070615#13 -40070615#12 -40070615#11 -40070615#10 -40070615#9 -40070615#8 -40070615#7 -40070615#6 -40070615#5 -40070615#4 -40070615#3 -27672317#9 27672902#1 24006308#3 24006308#4 24006308#5 24006308#6 24006308#7 24006308#8 24006308#9 25840176#17"/>
  </vehicle>
  <vehicle id="t27" type="city_vehicles" depart="13.500000">
    <route edges="102843056 -40070615#18 -40070615#17 -40070615#16 -40070615#15 -40070615#14 -40070615#13 -40070615#12 -40070615#11 -40070615#10 -40070615#9 -40070615#8 -40070615#7 -40070615#6 -40070615#5 -40070615#4 -40070615#3 -40070615#2 -24006308#1"/>
  </vehicle>
  <vehicle id="t28" type="city_vehicles" depart="14.000000">
    <route edges="-40070615#1 40070615#1 40070615#2 40070615#3 40070615#4 40070615#5 40070615#6 40070615#7 40070615#8 40070615#9 40070615#10 40070615#11 40070615#12 40070615#13 40070615#14 26445203#10 26445203#11 26445203#12 27695531#0 27695531#1"/>
  </vehicle>
  <vehicle id="t29" type="city_vehicles" depart="14.500000">
    <route edges="-40070615#1 40070615#1 40070615#2 40070615#3 40070615#4 40070615#5 40070615#6 40070615#7 40070615#8 -26764286#7 31293536#0 31293536#1 -31294049#1 -31294049#0 31294051#0 31294051#1 31294051#2 62094493#2 62094493#3 27695721#1 27696193#3"/>
  </vehicle>
  <vehicle id="t30" type="city_vehicles" depart="15.000000">
    <route edges="-27696193#3 27696193#3 27696193#4 27696193#5 -31293535#2 -31293535#1 -27771927#3 -27771927#2 -40070615#16 -40070615#15 -40070615#14 -40070615#13"/>
  </vehicle>
  <vehicle id="t31" type="city_vehicles" depart="15.500000">
    <route edges="-40070615#1 40070615#1 24006308#2 24006308#3 24006308#4 24006308#5 24006308#6 24006308#7 24006308#8 24006308#9 -24006308#9"/>
  </vehicle>
  <vehicle id="t32" type="city_vehicles" depart="16.000000">
    <route edges="27672315#1 -27672316#1 -27672316#0 -25840176#14 -25840176#13 -25840176#12 -25840176#11 -25840176#10 -25840176#9 -25840176#8 -25840176#7 -25840176#6 26445198#0 26445198#1 26445198#2 26445198#3 24494010#0 24494010#1 -27771927#7 -27771927#6 -27771927#5 31294051#2 31294051#3 27696193#5 31293535#3 23500854 51189618 34316281 23365098#5 -23365098#5"/>
  </vehicle>
  <vehicle id="t33" type="city_vehicles" depart="16.500000">
    <route edges="-27672317#2 -25840176#15 -25840176#14 -25840176#13 -25840176#12 -25840176#11 -25840176#10 -25840176#9 -25840176#8 -25840176#7 -25840176#6 26445198#0 26445198#1 26445198#2 26445198#3 24494010#0 24494010#1 -27771927#7 -27771927#6 -27771927#5 31294051#2 31294051#3 27696193#5 31293535#3 23500854 51189618 34316281 23365098#5 -23365098#5"/>
  </vehicle>
  <vehicle id="t34" type="city_vehicles" depart="17.000000">
    <route edges="40070615#0 40070615#1 40070615#2 40070615#3 40070615#4 40070615#5 40070615#6 40070615#7 40070615#8 -26764286#7 31293536#0 31293536#1 31293536#2 31293535#0 31293535#1 31293535#2 -27696193#5"/>
  </vehicle>
  <vehicle id="t35" type="city_vehicles" depart="17.500000">
    <route edges="24006308#1 40070615#2 40070615#3 40070615#4 40070615#5 40070615#6 40070615#7 40070615#8 -26764286#7 31293536#0 31293536#1 31293536#2 31293535#0 31293535#1 31293535#2 31293535#3 23500854 51189618 34316281 23365098#5"/>
  </vehicle>
  <vehicle id="t36" type="city_vehicles" depart="18.000000">
    <route edges="23365098#5 -23365098#5 -34316281 60857775 60857774#0 60857774#1 60857774#2 60857774#3 60857774#4 -24494010#4 -24494010#3 62094493#5 62094493#6 25840176#1 25840176#2 25840176#3 25840176#4 25840176#5 25840176#6 25840176#7 25840176#8 25840176#9 25840176#10 25840176#11 25840176#12 25840176#13 -25840176#13"/>
  </vehicle>
  <vehicle id="t37" type="city_vehicles" depart="18.500000">
    <route edges="-26774961#2 27771927#1 -40070615#16 -40070615#15 -40070615#14 -40070615#13 -40070615#12 -40070615#11 -40070615#10 -40070615#9 -40070615#8 -40070615#7 -40070615#6 -40070615#5 -40070615#4 -40070615#3 -40070615#2 -40070615#1 40070615#1"/>
  </vehicle>
  <vehicle id="t38" type="city_vehicles" depart="19.000000">
    <route edges="31293535#2 -31293535#2 -31293535#1 -31293535#0 -31293536#2 -31293536#1 -31293536#0 26764286#7 -40070615#8 -40070615#7 -40070615#6 -40070615#5 -40070615#4 -40070615#3 -40070615#2 40070615#2"/>
  </vehicle>
  <vehicle id="t39" type="city_vehicles" depart="19.500000">
    <route edges="-40070615#14 -40070615#13 -40070615#12 -40070615#11 -40070615#10 -40070615#9 -40070615#8 -40070615#7 -40070615#6 -40070615#5 -40070615#4 -40070615#3 -27672317#9 27672902#1 24006308#3 24006308#4 24006308#5 24006308#6 24006308#7 24006308#8 24006308#9 -24006308#9"/>
  </vehicle>
  <vehicle id="t40" type="city_vehicles" depart="20.000000">
    <route edges="-25840176#3 25840176#3 25840176#4 25840176#5 25840176#6 25840176#7 26764285#0 26764285#1 26764285#2 26764285#3 26764285#4 26764285#5 26764285#6 26764285#7 26764285#8 -31294050#7 -31260305 -31293536#0 26764286#7 -40070615#8 -40070615#7 -40070615#6 -40070615#5 -40070615#4 -40070615#3 -40070615#2 -40070615#1 40070615#1"/>
  </vehicle>
  <vehicle id="t41" type="city_vehicles" depart="20.500000">
    <route edges="24006308#9 -24006308#9 -24006308#8 -24006308#7 -24006308#6 -24006308#5 -24006308#4 -24006308#3 -27672902#1 27672317#9 40070615#3 40070615#4 40070615#5 40070615#6 40070615#7 40070615#8 40070615#9 40070615#10 40070615#11 40070615#12 31294049#4"/>
  </vehicle>
  <vehicle id="t42" type="city_vehicles" depart="21.000000">
    <route edges="-24006308#2 40070615#2 40070615#3 40070615#4 40070615#5 40070615#6 40070615#7 40070615#8 -26764286#7 31293536#0 31293536#1 31293536#2 31293535#0 31293535#1 31293535#2 31293535#3 23500854"/>
  </vehicle>
  <vehicle id="t43" type="city_vehicles" depart="21.500000">
    <route edges="27695531#1 63013181#0 26774961#1 27771927#1 -40070615#16 -40070615#15 -40070615#14 -40070615#13 -40070615#12 -40070615#11 -40070615#10 -40070615#9 -40070615#8 -40070615#7 -40070615#6 -40070615#5 -40070615#4 -40070615#3 -27672317#9 27672902#1 24006308#3 24006308#4 24006308#5 24006308#6 24006308#7 24006308#8 24006308#9 41231929 -41231929"/>
  </vehicle>
  <vehicle id="t44" type="city_vehicles" depart="22.000000">
    <route edges="27695546 -26764287#4 26764289#0 26764289#1 -40070615#13 -40070615#12 -40070615#11 -40070615#10 -40070615#9 -40070615#8 -40070615#7 -40070615#6 -40070615#5 -40070615#4 -40070615#3 -27672317#9 27672902#1 24006308#3 24006308#4 24006308#5 24006308#6 24006308#7 24006308#8 24006308#9 25840176#17 25840176#18"/>
  </vehicle>
  <vehicle id="t45" type="city_vehicles" depart="22.500000">
    <route edges="25840020 -25840020 -40070615#18 -40070615#17 -40070615#16 -40070615#15 -40070615#14 -40070615#13 -40070615#12 -40070615#11 -40070615#10 -40070615#9 -40070615#8 -40070615#7 -40070615#6 -40070615#5 -40070615#4 -40070615#3 -27672317#9 27672902#1 24006308#3 24006308#4 24006308#5 24006308#6 24006308#7"/>
  </vehicle>
  <vehicle id="t46" type="city_vehicles" depart="23.000000">
    <route edges="-40070615#13 -40070615#12 -40070615#11 -40070615#10 -40070615#9 -40070615#8 -40070615#7 -40070615#6 -40070615#5 -40070615#4 -40070615#3 -40070615#2 40070615#2"/>
  </vehicle>
  <vehicle id="t47" type="city_vehicles" depart="23.500000">
    <route edges="31293535#2 -27696193#5 -31294051#3 62094493#2 62094493#3 62094493#4 62094493#5 62094493#6 25840176#1 25840176#2 25840176#3 25840176#4 25840176#5 25840176#6 25840176#7 25840176#8 25840176#9 25840176#10 25840176#11 25840176#12 25840176#13 25840176#14 25840176#15 -27672317#1 -27672317#0 -27672315#0 -41231929"/>
  </vehicle>
  <vehicle id="t48" type="city_vehicles" depart="24.000000">
    <route edges="-40070615#2 40070615#2 40070615#3 40070615#4 40070615#5 40070615#6 40070615#7 40070615#8 40070615#9 40070615#10 40070615#11 40070615#12 -40070615#12"/>
  </vehicle>
  <vehicle id="t49" type="city_vehicles" depart="24.500000">
    <route edges="62094493#5 31294034#2 27696193#1 27696193#2 27696193#3 27696193#4 27696193#5 27696193#6 102843056 -40070615#18 63013181#2"/>
  </vehicle>
  <vehicle id="t50" type="city_vehicles" depart="25.000000">
    <route edges="-26774961#1 26774961#1 27771927#1 -40070615#16 -40070615#15 -40070615#14 -40070615#13 -40070615#12 -40070615#11 -40070615#10 -40070615#9 -40070615#8 -40070615#7 -40070615#6 -40070615#5 -40070615#4 -40070615#3 -27672317#9 27672902#1 24006308#3 24006308#4 24006308#5 24006308#6 24006308#7 24006308#8 24006308#9 41231929 -41231929"/>
  </vehicle>
  <vehicle id="t51" type="city_vehicles" depart="25.500000">
    <route edges="40070615#18 -40070615#18 -40070615#17 -40070615#16 -40070615#15 -40070615#14 -40070615#13 -40070615#12 -40070615#11 -40070615#10 -40070615#9 -40070615#8 -40070615#7 -40070615#6 -40070615#5 -40070615#4 -40070615#3"/>
  </vehicle>
  <vehicle id="t52" type="city_vehicles" depart="26.000000">
    <route edges="40070615#15 -40070615#15 -40070615#14 -40070615#13 -40070615#12 -40070615#11 -40070615#10 -40070615#9 -40070615#8 -40070615#7 -40070615#6 -40070615#5 -40070615#4 -40070615#3 -40070615#2 40070615#2"/>
  </vehicle>
  <vehicle id="t53" type="city_vehicles" depart="26.500000">
    <route edges="25840020 -25840020 -40070615#18 -40070615#17 -40070615#16 -40070615#15 -40070615#14 -40070615#13 -40070615#12 -40070615#11 -40070615#10 -40070615#9 -40070615#8 -40070615#7 -40070615#6 -40070615#5 -40070615#4 -40070615#3 -27672317#9 27672902#1 24006308#3 24006308#4"/>
  </vehicle>
  <vehicle id="t54" type="city_vehicles" depart="27.000000">
    <route edges="25840176#13 -25840176#13 -25840176#12 -25840176#11 -25840176#10 -25840176#9 -25840176#8 -25840176#7 -25840176#6 26445198#0 26445198#1 26445198#2 26445198#3 24494010#0 24494010#1 -27771927#7 -27771927#6 -27771927#5 31294051#2 31294051#3 27696193#5 31293535#3 23500854 51189618"/>
  </vehicle>
  <vehicle id="t55" type="city_vehicles" depart="27.500000">
    <route edges="-26764293#5 26445203#0 25840176#4 25840176#5 25840176#6 25840176#7 26764285#0 26764285#1 26764285#2 26764285#3 26764285#4 26764285#5 26764285#6 26764285#7 26764285#8 -31294050#7 -31260305 -31293536#0 26764286#7 -40070615#8 -40070615#7 -40070615#6 -40070615#5 -40070615#4 -40070615#3 -40070615#2 -40070615#1 40070615#1"/>
  </vehicle>
  <vehicle id="t56" type="city_vehicles" depart="28.000000">
    <route edges="26774961#4 -26774961#4 -26774961#3 31259645 40070615#16 27771927#2 27771927#3 31293535#1 31293535#2 -27696193#5 -27696193#4 -27696193#3 -27696193#2 -27696193#1 -27696193#0"/>
  </vehicle>
  <vehicle id="t57" type="city_vehicles" depart="28.500000">
    <route edges="31293535#2 -27696193#5 -31294051#3 -31294051#2 -31294051#1 -31294051#0 -31294050#8 -31294050#7 -31294050#6 -31294050#5 -31294050#4 -31294050#3 -31294050#2 -31294050#1 -27672317#7 -27672317#6 -31294045#0 24006308#6 24006308#7 24006308#8 24006308#9"/>
  </vehicle>
  <vehicle id="t58" type="city_vehicles" depart="29.000000">
    <route edges="23365098#5 -23365098#5 -34316281 -51189618 -23500854 -31293535#3 -27696193#5 -31294051#3 -31294051#2 -31294051#1 -31294051#0 -31294050#8 -31294050#7 -31294050#6 -31294050#5 -31294050#4 -31294050#3 -31294050#2 -31294050#1 -31294050#0"/>
  </vehicle>
  <vehicle id="t59" type="city_vehicles" depart="29.500000">
    <route edges="27785510#0 40070615#1 40070615#2 40070615#3 40070615#4 40070615#5 40070615#6 40070615#7 40070615#8 -26764286#7 31293536#0 31260305 31294050#7 -26764285#8 -26764285#7 -26764285#6 -26764285#5 -26764285#4 -26764285#3 -26764285#2 -26764285#1 -26764285#0 -25840176#7 -25840176#6 -25840176#5 -25840176#4 -25840176#3 -25840176#2 -25840176#1"/>
  </vehicle>
  <vehicle id="t60" type="city_vehicles" depart="30.000000">
    <route edges="51189618 -51189618 -23500854 -31293535#3 -27696193#5 -31294051#3 -31294051#2 -31294051#1 -31294051#0 -31294050#8 -31294050#7 -31294050#6 -31294050#5 -31294050#4 -31294050#3 -31294050#2 -31294050#1 -31294050#0 -24006308#4 24006308#4"/>
  </vehicle>
  <vehicle id="t61" type="city_vehicles" depart="30.500000">
    <route edges="40070615#0 40070615#1 40070615#2 40070615#3 40070615#4 40070615#5 40070615#6 40070615#7 40070615#8 -26764286#7 31293536#0 31293536#1 -31294049#1 -31294049#0 31294051#0 31294051#1 31294051#2 31294051#3 27696193#5"/>
  </vehicle>
  <vehicle id="t62" type="city_vehicles" depart="31.000000">
    <route edges="23365098#5 -23365098#5 -34316281 -51189618 -23500854 -31293535#3 -27696193#5 -31294051#3 -31294051#2 -31294051#1 -31294051#0 -31294050#8 -31294050#7 -31294050#6 -31294050#5 -31294050#4 -31294050#3 -31294050#2 -31294050#1 -27672317#7 -27672317#6 -31294045#0 -24494011 24494011"/>
  </vehicle>
  <vehicle id="t63" type="city_vehicles" depart="31.500000">
    <route edges="23365098#5 -23365098#5 -34316281 -51189618 -23500854 -31293535#3 -27696193#5 -31294051#3 -31294051#2 -31294051#1 -31294051#0 -31294050#8 -31294050#7 -31294050#6 -31294050#5 -31294050#4 -31294050#3 -31294050#2 -31294050#1 -27672317#7 -27672317#6 -31294045#0 -24006308#5"/>
  </vehicle>
  <vehicle id="t64" type="city_vehicles" depart="32.000000">
    <route edges="63013181#2 26596251#1 26596251#2 26596251#3 26596251#4 -31241609 -40070615#10 -40070615#9 -40070615#8 -40070615#7 -40070615#6 -40070615#5 -40070615#4 -40070615#3 -40070615#2 -40070615#1 40070615#1"/>
  </vehicle>
  <vehicle id="t65" type="city_vehicles" depart="32.500000">
    <route edges="-27695722 -51189618 -23500854 -31293535#3 -31293535#2 -31293535#1 -31293535#0 -31293536#2 -31293536#1 -31293536#0 26764286#7 -40070615#8 -40070615#7 -40070615#6 -40070615#5 -40070615#4 -40070615#3 -40070615#2 -40070615#1 27785510#1 -27785510#1"/>
  </vehicle>
  <vehicle id="t66" type="city_vehicles" depart="33.000000">
    <route edges="31293535#2 -27696193#5 -31294051#3 62094493#2 62094493#3 62094493#4 62094493#5 62094493#6 25840176#1 25840176#2 25840176#3 25840176#4 25840176#5 25840176#6 25840176#7 25840176#8 25840176#9 25840176#10 25840176#11 25840176#12 25840176#13 25840176#14 -25840176#14"/>
  </vehicle>
  <vehicle id="t67" type="city_vehicles" depart="33.500000">
    <route edges="-27696193#0 27696193#0 27696193#1 27696193#2 27696193#3 27696193#4 27696193#5 -31293535#2 62094493#1"/>
  </vehicle>
  <vehicle id="t68" type="city_vehicles" depart="34.000000">
    <route edges="23365098#5 -23365098#5 -34316281 -51189618 -23500854 -31293535#3 -27696193#5 -31294051#3 -31294051#2 -31294051#1 -31294051#0 -31294050#8 -31294050#7 -31294050#6 -31294050#5 -31294050#4 -31294050#3 -31294050#2 -31294050#1 -27672317#7 -27672317#6"/>
  </vehicle>
  <vehicle id="t69" type="city_vehicles" depart="34.500000">
    <route edges="27696193#0 -31294034#2 62094493#6 25840176#1 25840176#2 25840176#3 25840176#4 25840176#5 25840176#6 25840176#7 25840176#8 25840176#9 25840176#10 25840176#11 25840176#12 25840176#13 -25840176#13"/>
  </vehicle>
  <vehicle id="t70" type="city_vehicles" depart="35.000000">
    <route edges="-25840176#18 -25840176#17 -25840176#16 -25840176#15 -25840176#14 -25840176#13 -25840176#12 -25840176#11 -25840176#10 -25840176#9 -25840176#8 -25840176#7 -25840176#6 26445198#0 26445198#1 26445198#2 26445198#3 24494010#0 24494010#1 -27771927#7 -27771927#6 -27771927#5 31294051#2 31294051#3 27696193#5 31293535#3 23500854 51189618 34316281 23365098#5"/>
  </vehicle>
  <vehicle id="t71" type="city_vehicles" depart="35.500000">
    <route edges="23365098#1 23365098#2 -31294043#2 -31294043#1 27696193#4 -31294051#3 -31294051#2 -31294051#1 -31294051#0 31294049#0 31294049#1 -31293536#1 -31293536#0 26764286#7 -40070615#8 -40070615#7 -40070615#6 -40070615#5 -40070615#4 -40070615#3 -40070615#2 -40070615#1"/>
  </vehicle>
  <vehicle id="t72" type="city_vehicles" depart="36.000000">
    <route edges="-40070615#1 40070615#1 40070615#2 40070615#3 40070615#4 40070615#5 40070615#6 40070615#7 40070615#8 -26764286#7 31293536#0 31293536#1 -31294049#1 -31294049#0 31294051#0 31294051#1 31294051#2 31294051#3 -27696193#4 31294043#1 60857774#2 60857774#3 27695732#0 24494010#6"/>
  </vehicle>
  <vehicle id="t73" type="city_vehicles" depart="36.500000">
    <route edges="-40070615#16 40070615#16 27771927#2 27771927#3 31293535#1 31293535#2 -27696193#5 -27696193#4 -27696193#3 -27696193#2 -27696193#1 -27696193#0"/>
  </vehicle>
  <vehicle id="t74" type="city_vehicles" depart="37.000000">
    <route edges="24006308#1 40070615#2 40070615#3 40070615#4 40070615#5 40070615#6 40070615#7 40070615#8 40070615#9 40070615#10 40070615#11 40070615#12 -40070615#12"/>
  </vehicle>
  <vehicle id="t75" type="city_vehicles" depart="37.500000">
    <route edges="23365098#5 -23365098#5 -34316281 60857775 60857774#0 60857774#1 60857774#2 60857774#3 60857774#4 -24494010#4 -24494010#3 62094493#5 62094493#6 25840176#1 25840176#2 25840176#3 25840176#4 25840176#5 25840176#6 25840176#7 25840176#8 25840176#9 25840176#10 25840176#11 25840176#12 25840176#13 25840176#14"/>
  </vehicle>
  <vehicle id="t76" type="city_vehicles" depart="38.000000">
    <route edges="-27785509#0 40070615#0 40070615#1 40070615#2 40070615#3 40070615#4 40070615#5 40070615#6 40070615#7 40070615#8 -26764286#7 31293536#0 31293536#1 31293536#2 31293535#0 31293535#1 31293535#2 31293535#3 23500854 51189618 34316281 -34316281"/>
  </vehicle>
  <vehicle id="t77" type="city_vehicles" depart="38.500000">
    <route edges="25840176#1 25840176#2 -27771927#9 -27771927#8 -27771927#7 -27771927#6 -27771927#5 31294051#2 31294051#3 27696193#5 27696193#6 102843056 -102843056"/>
  </vehicle>
  <vehicle id="t78" type="city_vehicles" depart="39.000000">
    <route edges="41231929 27672315#0 27672317#0 27672317#1 -25840176#15 -25840176#14 -25840176#13 -25840176#12 -25840176#11 -25840176#10 -25840176#9 -25840176#8 -25840176#7 -25840176#6 26445198#0 26445198#1 26445198#2 26445198#3 24494010#0 24494010#1 -27771927#7 -27771927#6 -27771927#5 31294051#2 31294051#3 27696193#5 -31293535#2"/>
  </vehicle>
  <vehicle id="t79" type="city_vehicles" depart="39.500000">
    <route edges="51189618 -51189618 -23500854 -31293535#3 -31293535#2 -31293535#1 -31293535#0 -31293536#2 -31293536#1 -31293536#0 26764286#7 -40070615#8 -40070615#7 -40070615#6 -40070615#5 -40070615#4 -40070615#3 -40070615#2 -40070615#1 -40070615#0"/>
  </vehicle>
  <vehicle id="t80" type="city_vehicles" depart="40.000000">
    <route edges="63013181#3 62094490 62094493#0 -31293535#1 -31293535#0 -31293536#2 -31293536#1 -31293536#0 26764286#7 -40070615#8 -40070615#7 -40070615#6 -40070615#5 -40070615#4 -40070615#3 -40070615#2 -40070615#1 40070615#1"/>
  </vehicle>
  <vehicle id="t81" type="city_vehicles" depart="40.500000">
    <route edges="25840176#1 25840176#2 25840176#3 25840176#4 25840176#5 25840176#6 25840176#7 26764285#0 26764285#1 26764285#2 26764285#3 26764285#4 26764285#5 26764285#6 26764285#7 26764285#8 -31294050#7 -31260305 -31293536#0 26764286#7 -40070615#8 -40070615#7 -40070615#6 -40070615#5 -40070615#4 -40070615#3 -40070615#2 -40070615#1 -40070615#0 27785509#0"/>
  </vehicle>
  <vehicle id="t82" type="city_vehicles" depart="41.000000">
    <route edges="-27672322#0 27672322#0 27672322#1 -27672324#1 -27672324#0 27672320#1 -27672335#5 -27672335#4 -27672335#3 -27672335#2 -27672335#1 24006308#1 24006308#2 24006308#3 24006308#4 24006308#5 24006308#6 24006308#7 24006308#8 24006308#9 -24006308#9"/>
  </vehicle>
  <vehicle id="t83" type="city_vehicles" depart="41.500000">
    <route edges="27695731 23365098#2 -31294043#2 -31294043#1 27696193#4 -31294051#3 -31294051#2 -31294051#1 -31294051#0 31294049#0 31294049#1 -31293536#1 -31293536#0 26764286#7 -40070615#8 -40070615#7 -40070615#6 -40070615#5 -40070615#4 -40070615#3 -40070615#2 -40070615#1 40070615#1"/>
  </vehicle>
  <vehicle id="t84" type="city_vehicles" depart="42.000000">
    <route edges="27672561 -27672335#3 -27672335#2 -27672335#1 24006308#1 24006308#2 24006308#3 24006308#4 24006308#5 24006308#6 24006308#7 24006308#8 24006308#9 -24006308#9"/>
  </vehicle>
  <vehicle id="t85" type="city_vehicles" depart="42.500000">
    <route edges="24006308#9 -25840176#16 -25840176#15 -25840176#14 -25840176#13 -25840176#12 -25840176#11 -25840176#10 -25840176#9 -25840176#8 -25840176#7 -25840176#6 -25840176#5 -25840176#4 -25840176#3 -25840176#2 -25840176#1 25840176#1"/>
  </vehicle>
  <vehicle id="t86" type="city_vehicles" depart="43.000000">
    <route edges="-25840176#0 25840176#0 25840176#1 25840176#2 -27771927#9 -27771927#8 -27771927#7 -27771927#6 -27771927#5 31294051#2 31294051#3 27696193#5 27696193#6 102843056 -40070615#18"/>
  </vehicle>
  <vehicle id="t87" type="city_vehicles" depart="43.500000">