<?xml version="1.0" encoding="iso-8859-1"?>

<configuration xmlns:xsi="http://www.w3.org/2001/XMLSchema-instance" xsi:noNamespaceSchemaLocation="http://sumo.sf.net/xsd/sumoConfiguration.xsd">

    <input>
        <net-file value="london.net.xml"/>
        <route-files value="types.rou.xml,london_heavy.rou.xml"/>
    </input>

    <time>
        <begin value="0"/>
        <end value="360"/>
        <step-length value="0.1"/>
    </time>

    <random_number>
        <srand value="0" />
        <abs-rand value="0" />
    </random_number>
    
    <traci_server>
        <penetration value="1"/>
    </traci_server>

</configuration>
